# File generated by Flopy version 3.5.0.dev0 on 08/01/2024 at 12:21:34.
BEGIN options
  BOUNDNAMES
  PRINT_HEAD
  PRINT_FLOWS
  SAVE_FLOWS
  BUDGETCSV  FILEOUT  maw_budget.csv
  NO_WELL_STORAGE
END options

BEGIN dimensions
  NMAWWELLS  22
END dimensions

BEGIN packagedata
  1       1.66666667     933.00000000    1293.00000000  THIEM  2  605514
  2       1.66666667    -219.00000000    1295.00000000  THIEM  25  605500
  3       1.50000000     805.20000000    1299.00000000  THIEM  4  605506
  4       1.66666667     313.20000000    1304.00000000  THIEM  14  605503
  5       1.66666667     917.00000000    1307.00000000  THIEM  3  605515
  6       1.66666667     411.60000000    1307.00000000  THIEM  12  605502
  7       1.66666667     854.40000000    1308.00000000  THIEM  3  605510
  8       1.66666667     -78.00000000    1310.00000000  THIEM  22  201736
  9       1.66666667     411.60000000    1309.00000000  THIEM  12  605509
  10       1.66666667     117.00000000    1317.00000000  THIEM  18  605497
  11       1.66666667     119.00000000    1319.00000000  THIEM  18  605499
  12       1.66666667    -178.80000000    1010.00000000  THIEM  22  605498
  13       1.66666667     332.00000000    1307.00000000  THIEM  14  605056
  14       1.66666667    -156.00000000    1324.00000000  THIEM  24  605496
  15       1.66666667     916.00000000    1308.00000000  THIEM  2  605057
  16       1.66666667     559.20000000    1314.00000000  THIEM  9  623471
  17       1.33333333     116.40000000    1312.00000000  THIEM  18  615415
  18       1.66666667     319.00000000    1319.00000000  THIEM  14  615417
  19       1.50000000     313.20000000    1324.00000000  THIEM  14  615418
  20       1.16666667     -31.20000000    1337.00000000  THIEM  21  612767
  21       1.66666667     668.00000000    1088.00000000  THIEM  6  605619
  22       1.50000000    1051.00000000    1233.00000000  THIEM  2  625197
END packagedata

BEGIN connectiondata
  1  1  1 11    1289.55004883    1011.00000000       0.00000000       0.00000000
  1  2  2 11    1011.00000000     933.00000000       0.00000000       0.00000000
  2  1  1 12    1291.91003418    1025.00000000       0.00000000       0.00000000
  2  2  2 12    1025.00000000     940.00000000       0.00000000       0.00000000
  2  3  3 12     940.00000000     854.40000000       0.00000000       0.00000000
  2  4  4 12     854.40000000     805.20000000       0.00000000       0.00000000
  2  5  5 12     805.20000000     756.00000000       0.00000000       0.00000000
  2  6  6 12     756.00000000     706.80000000       0.00000000       0.00000000
  2  7  7 12     706.80000000     657.60000000       0.00000000       0.00000000
  2  8  8 12     657.60000000     608.40000000       0.00000000       0.00000000
  2  9  9 12     608.40000000     559.20000000       0.00000000       0.00000000
  2  10  10 12     559.20000000     510.00000000       0.00000000       0.00000000
  2  11  11 12     510.00000000     460.80000000       0.00000000       0.00000000
  2  12  12 12     460.80000000     411.60000000       0.00000000       0.00000000
  2  13  13 12     411.60000000     362.40000000       0.00000000       0.00000000
  2  14  14 12     362.40000000     313.20000000       0.00000000       0.00000000
  2  15  15 12     313.20000000     264.00000000       0.00000000       0.00000000
  2  16  16 12     264.00000000     214.80000000       0.00000000       0.00000000
  2  17  17 12     214.80000000     165.60000000       0.00000000       0.00000000
  2  18  18 12     165.60000000     116.40000000       0.00000000       0.00000000
  2  19  19 12     116.40000000      67.20000000       0.00000000       0.00000000
  2  20  20 12      67.20000000      18.00000000       0.00000000       0.00000000
  2  21  21 12      18.00000000     -31.20000000       0.00000000       0.00000000
  2  22  22 12     -31.20000000     -80.40000000       0.00000000       0.00000000
  2  23  23 12     -80.40000000    -129.60000000       0.00000000       0.00000000
  2  24  24 12    -129.60000000    -178.80000000       0.00000000       0.00000000
  2  25  25 12    -178.80000000    -219.00000000       0.00000000       0.00000000
  3  1  1 41    1298.43005371    1028.00000000       0.00000000       0.00000000
  3  2  2 41    1028.00000000     921.00000000       0.00000000       0.00000000
  3  3  3 41     921.00000000     854.40000000       0.00000000       0.00000000
  3  4  4 41     854.40000000     805.20000000       0.00000000       0.00000000
  4  1  1 42    1303.51000977    1040.00000000       0.00000000       0.00000000
  4  2  2 42    1040.00000000     955.00000000       0.00000000       0.00000000
  4  3  3 42     955.00000000     854.40000000       0.00000000       0.00000000
  4  4  4 42     854.40000000     805.20000000       0.00000000       0.00000000
  4  5  5 42     805.20000000     756.00000000       0.00000000       0.00000000
  4  6  6 42     756.00000000     706.80000000       0.00000000       0.00000000
  4  7  7 42     706.80000000     657.60000000       0.00000000       0.00000000
  4  8  8 42     657.60000000     608.40000000       0.00000000       0.00000000
  4  9  9 42     608.40000000     559.20000000       0.00000000       0.00000000
  4  10  10 42     559.20000000     510.00000000       0.00000000       0.00000000
  4  11  11 42     510.00000000     460.80000000       0.00000000       0.00000000
  4  12  12 42     460.80000000     411.60000000       0.00000000       0.00000000
  4  13  13 42     411.60000000     362.40000000       0.00000000       0.00000000
  4  14  14 42     362.40000000     313.20000000       0.00000000       0.00000000
  5  1  1 57    1306.46997070    1048.00000000       0.00000000       0.00000000
  5  2  2 57    1048.00000000     998.00000000       0.00000000       0.00000000
  5  3  3 57     998.00000000     917.00000000       0.00000000       0.00000000
  6  1  1 58    1306.46997070    1048.00000000       0.00000000       0.00000000
  6  2  2 58    1048.00000000     998.00000000       0.00000000       0.00000000
  6  3  3 58     998.00000000     854.40000000       0.00000000       0.00000000
  6  4  4 58     854.40000000     805.20000000       0.00000000       0.00000000
  6  5  5 58     805.20000000     756.00000000       0.00000000       0.00000000
  6  6  6 58     756.00000000     706.80000000       0.00000000       0.00000000
  6  7  7 58     706.80000000     657.60000000       0.00000000       0.00000000
  6  8  8 58     657.60000000     608.40000000       0.00000000       0.00000000
  6  9  9 58     608.40000000     559.20000000       0.00000000       0.00000000
  6  10  10 58     559.20000000     510.00000000       0.00000000       0.00000000
  6  11  11 58     510.00000000     460.80000000       0.00000000       0.00000000
  6  12  12 58     460.80000000     411.60000000       0.00000000       0.00000000
  7  1  1 271    1304.08996582    1037.00000000       0.00000000       0.00000000
  7  2  2 271    1037.00000000     957.00000000       0.00000000       0.00000000
  7  3  3 271     957.00000000     854.40000000       0.00000000       0.00000000
  8  1  1 1183    1301.68005371    1032.00000000       0.00000000       0.00000000
  8  2  2 1183    1032.00000000     922.00000000       0.00000000       0.00000000
  8  3  3 1183     922.00000000     854.40000000       0.00000000       0.00000000
  8  4  4 1183     854.40000000     805.20000000       0.00000000       0.00000000
  8  5  5 1183     805.20000000     756.00000000       0.00000000       0.00000000
  8  6  6 1183     756.00000000     706.80000000       0.00000000       0.00000000
  8  7  7 1183     706.80000000     657.60000000       0.00000000       0.00000000
  8  8  8 1183     657.60000000     608.40000000       0.00000000       0.00000000
  8  9  9 1183     608.40000000     559.20000000       0.00000000       0.00000000
  8  10  10 1183     559.20000000     510.00000000       0.00000000       0.00000000
  8  11  11 1183     510.00000000     460.80000000       0.00000000       0.00000000
  8  12  12 1183     460.80000000     411.60000000       0.00000000       0.00000000
  8  13  13 1183     411.60000000     362.40000000       0.00000000       0.00000000
  8  14  14 1183     362.40000000     313.20000000       0.00000000       0.00000000
  8  15  15 1183     313.20000000     264.00000000       0.00000000       0.00000000
  8  16  16 1183     264.00000000     214.80000000       0.00000000       0.00000000
  8  17  17 1183     214.80000000     165.60000000       0.00000000       0.00000000
  8  18  18 1183     165.60000000     116.40000000       0.00000000       0.00000000
  8  19  19 1183     116.40000000      67.20000000       0.00000000       0.00000000
  8  20  20 1183      67.20000000      18.00000000       0.00000000       0.00000000
  8  21  21 1183      18.00000000     -31.20000000       0.00000000       0.00000000
  8  22  22 1183     -31.20000000     -78.00000000       0.00000000       0.00000000
  9  1  1 1184    1306.96997070    1039.00000000       0.00000000       0.00000000
  9  2  2 1184    1039.00000000     955.00000000       0.00000000       0.00000000
  9  3  3 1184     955.00000000     854.40000000       0.00000000       0.00000000
  9  4  4 1184     854.40000000     805.20000000       0.00000000       0.00000000
  9  5  5 1184     805.20000000     756.00000000       0.00000000       0.00000000
  9  6  6 1184     756.00000000     706.80000000       0.00000000       0.00000000
  9  7  7 1184     706.80000000     657.60000000       0.00000000       0.00000000
  9  8  8 1184     657.60000000     608.40000000       0.00000000       0.00000000
  9  9  9 1184     608.40000000     559.20000000       0.00000000       0.00000000
  9  10  10 1184     559.20000000     510.00000000       0.00000000       0.00000000
  9  11  11 1184     510.00000000     460.80000000       0.00000000       0.00000000
  9  12  12 1184     460.80000000     411.60000000       0.00000000       0.00000000
  10  1  1 1188    1312.18005371    1046.00000000       0.00000000       0.00000000
  10  2  2 1188    1046.00000000     995.00000000       0.00000000       0.00000000
  10  3  3 1188     995.00000000     854.40000000       0.00000000       0.00000000
  10  4  4 1188     854.40000000     805.20000000       0.00000000       0.00000000
  10  5  5 1188     805.20000000     756.00000000       0.00000000       0.00000000
  10  6  6 1188     756.00000000     706.80000000       0.00000000       0.00000000
  10  7  7 1188     706.80000000     657.60000000       0.00000000       0.00000000
  10  8  8 1188     657.60000000     608.40000000       0.00000000       0.00000000
  10  9  9 1188     608.40000000     559.20000000       0.00000000       0.00000000
  10  10  10 1188     559.20000000     510.00000000       0.00000000       0.00000000
  10  11  11 1188     510.00000000     460.80000000       0.00000000       0.00000000
  10  12  12 1188     460.80000000     411.60000000       0.00000000       0.00000000
  10  13  13 1188     411.60000000     362.40000000       0.00000000       0.00000000
  10  14  14 1188     362.40000000     313.20000000       0.00000000       0.00000000
  10  15  15 1188     313.20000000     264.00000000       0.00000000       0.00000000
  10  16  16 1188     264.00000000     214.80000000       0.00000000       0.00000000
  10  17  17 1188     214.80000000     165.60000000       0.00000000       0.00000000
  10  18  18 1188     165.60000000     117.00000000       0.00000000       0.00000000
  11  1  1 1677    1319.00000000    1060.00000000       0.00000000       0.00000000
  11  2  2 1677    1060.00000000    1010.00000000       0.00000000       0.00000000
  11  3  3 1677    1010.00000000     854.40000000       0.00000000       0.00000000
  11  4  4 1677     854.40000000     805.20000000       0.00000000       0.00000000
  11  5  5 1677     805.20000000     756.00000000       0.00000000       0.00000000
  11  6  6 1677     756.00000000     706.80000000       0.00000000       0.00000000
  11  7  7 1677     706.80000000     657.60000000       0.00000000       0.00000000
  11  8  8 1677     657.60000000     608.40000000       0.00000000       0.00000000
  11  9  9 1677     608.40000000     559.20000000       0.00000000       0.00000000
  11  10  10 1677     559.20000000     510.00000000       0.00000000       0.00000000
  11  11  11 1677     510.00000000     460.80000000       0.00000000       0.00000000
  11  12  12 1677     460.80000000     411.60000000       0.00000000       0.00000000
  11  13  13 1677     411.60000000     362.40000000       0.00000000       0.00000000
  11  14  14 1677     362.40000000     313.20000000       0.00000000       0.00000000
  11  15  15 1677     313.20000000     264.00000000       0.00000000       0.00000000
  11  16  16 1677     264.00000000     214.80000000       0.00000000       0.00000000
  11  17  17 1677     214.80000000     165.60000000       0.00000000       0.00000000
  11  18  18 1677     165.60000000     119.00000000       0.00000000       0.00000000
  12  1  3 1825    1010.00000000     854.40000000       0.00000000       0.00000000
  12  2  4 1825     854.40000000     805.20000000       0.00000000       0.00000000
  12  3  5 1825     805.20000000     756.00000000       0.00000000       0.00000000
  12  4  6 1825     756.00000000     706.80000000       0.00000000       0.00000000
  12  5  7 1825     706.80000000     657.60000000       0.00000000       0.00000000
  12  6  8 1825     657.60000000     608.40000000       0.00000000       0.00000000
  12  7  9 1825     608.40000000     559.20000000       0.00000000       0.00000000
  12  8  10 1825     559.20000000     510.00000000       0.00000000       0.00000000
  12  9  11 1825     510.00000000     460.80000000       0.00000000       0.00000000
  12  10  12 1825     460.80000000     411.60000000       0.00000000       0.00000000
  12  11  13 1825     411.60000000     362.40000000       0.00000000       0.00000000
  12  12  14 1825     362.40000000     313.20000000       0.00000000       0.00000000
  12  13  15 1825     313.20000000     264.00000000       0.00000000       0.00000000
  12  14  16 1825     264.00000000     214.80000000       0.00000000       0.00000000
  12  15  17 1825     214.80000000     165.60000000       0.00000000       0.00000000
  12  16  18 1825     165.60000000     116.40000000       0.00000000       0.00000000
  12  17  19 1825     116.40000000      67.20000000       0.00000000       0.00000000
  12  18  20 1825      67.20000000      18.00000000       0.00000000       0.00000000
  12  19  21 1825      18.00000000     -31.20000000       0.00000000       0.00000000
  12  20  22 1825     -31.20000000     -80.40000000       0.00000000       0.00000000
  12  21  23 1825     -80.40000000    -129.60000000       0.00000000       0.00000000
  12  22  24 1825    -129.60000000    -178.80000000       0.00000000       0.00000000
  13  1  1 2326    1303.33996582    1034.00000000       0.00000000       0.00000000
  13  2  2 2326    1034.00000000     907.00000000       0.00000000       0.00000000
  13  3  3 2326     907.00000000     854.40000000       0.00000000       0.00000000
  13  4  4 2326     854.40000000     805.20000000       0.00000000       0.00000000
  13  5  5 2326     805.20000000     756.00000000       0.00000000       0.00000000
  13  6  6 2326     756.00000000     706.80000000       0.00000000       0.00000000
  13  7  7 2326     706.80000000     657.60000000       0.00000000       0.00000000
  13  8  8 2326     657.60000000     608.40000000       0.00000000       0.00000000
  13  9  9 2326     608.40000000     559.20000000       0.00000000       0.00000000
  13  10  10 2326     559.20000000     510.00000000       0.00000000       0.00000000
  13  11  11 2326     510.00000000     460.80000000       0.00000000       0.00000000
  13  12  12 2326     460.80000000     411.60000000       0.00000000       0.00000000
  13  13  13 2326     411.60000000     362.40000000       0.00000000       0.00000000
  13  14  14 2326     362.40000000     332.00000000       0.00000000       0.00000000
  14  1  1 2609    1324.00000000    1068.00000000       0.00000000       0.00000000
  14  2  2 2609    1068.00000000    1018.00000000       0.00000000       0.00000000
  14  3  3 2609    1018.00000000     854.40000000       0.00000000       0.00000000
  14  4  4 2609     854.40000000     805.20000000       0.00000000       0.00000000
  14  5  5 2609     805.20000000     756.00000000       0.00000000       0.00000000
  14  6  6 2609     756.00000000     706.80000000       0.00000000       0.00000000
  14  7  7 2609     706.80000000     657.60000000       0.00000000       0.00000000
  14  8  8 2609     657.60000000     608.40000000       0.00000000       0.00000000
  14  9  9 2609     608.40000000     559.20000000       0.00000000       0.00000000
  14  10  10 2609     559.20000000     510.00000000       0.00000000       0.00000000
  14  11  11 2609     510.00000000     460.80000000       0.00000000       0.00000000
  14  12  12 2609     460.80000000     411.60000000       0.00000000       0.00000000
  14  13  13 2609     411.60000000     362.40000000       0.00000000       0.00000000
  14  14  14 2609     362.40000000     313.20000000       0.00000000       0.00000000
  14  15  15 2609     313.20000000     264.00000000       0.00000000       0.00000000
  14  16  16 2609     264.00000000     214.80000000       0.00000000       0.00000000
  14  17  17 2609     214.80000000     165.60000000       0.00000000       0.00000000
  14  18  18 2609     165.60000000     116.40000000       0.00000000       0.00000000
  14  19  19 2609     116.40000000      67.20000000       0.00000000       0.00000000
  14  20  20 2609      67.20000000      18.00000000       0.00000000       0.00000000
  14  21  21 2609      18.00000000     -31.20000000       0.00000000       0.00000000
  14  22  22 2609     -31.20000000     -80.40000000       0.00000000       0.00000000
  14  23  23 2609     -80.40000000    -129.60000000       0.00000000       0.00000000
  14  24  24 2609    -129.60000000    -156.00000000       0.00000000       0.00000000
  15  1  1 2999    1307.69995117    1044.00000000       0.00000000       0.00000000
  15  2  2 2999    1044.00000000     916.00000000       0.00000000       0.00000000
  16  1  1 3000    1311.88000488    1049.00000000       0.00000000       0.00000000
  16  2  2 3000    1049.00000000     933.00000000       0.00000000       0.00000000
  16  3  3 3000     933.00000000     854.40000000       0.00000000       0.00000000
  16  4  4 3000     854.40000000     805.20000000       0.00000000       0.00000000
  16  5  5 3000     805.20000000     756.00000000       0.00000000       0.00000000
  16  6  6 3000     756.00000000     706.80000000       0.00000000       0.00000000
  16  7  7 3000     706.80000000     657.60000000       0.00000000       0.00000000
  16  8  8 3000     657.60000000     608.40000000       0.00000000       0.00000000
  16  9  9 3000     608.40000000     559.20000000       0.00000000       0.00000000
  17  1  1 3021    1311.95996094    1054.00000000       0.00000000       0.00000000
  17  2  2 3021    1054.00000000     925.00000000       0.00000000       0.00000000
  17  3  3 3021     925.00000000     854.40000000       0.00000000       0.00000000
  17  4  4 3021     854.40000000     805.20000000       0.00000000       0.00000000
  17  5  5 3021     805.20000000     756.00000000       0.00000000       0.00000000
  17  6  6 3021     756.00000000     706.80000000       0.00000000       0.00000000
  17  7  7 3021     706.80000000     657.60000000       0.00000000       0.00000000
  17  8  8 3021     657.60000000     608.40000000       0.00000000       0.00000000
  17  9  9 3021     608.40000000     559.20000000       0.00000000       0.00000000
  17  10  10 3021     559.20000000     510.00000000       0.00000000       0.00000000
  17  11  11 3021     510.00000000     460.80000000       0.00000000       0.00000000
  17  12  12 3021     460.80000000     411.60000000       0.00000000       0.00000000
  17  13  13 3021     411.60000000     362.40000000       0.00000000       0.00000000
  17  14  14 3021     362.40000000     313.20000000       0.00000000       0.00000000
  17  15  15 3021     313.20000000     264.00000000       0.00000000       0.00000000
  17  16  16 3021     264.00000000     214.80000000       0.00000000       0.00000000
  17  17  17 3021     214.80000000     165.60000000       0.00000000       0.00000000
  17  18  18 3021     165.60000000     116.40000000       0.00000000       0.00000000
  18  1  1 3031    1317.81005859    1067.00000000       0.00000000       0.00000000
  18  2  2 3031    1067.00000000     937.00000000       0.00000000       0.00000000
  18  3  3 3031     937.00000000     854.40000000       0.00000000       0.00000000
  18  4  4 3031     854.40000000     805.20000000       0.00000000       0.00000000
  18  5  5 3031     805.20000000     756.00000000       0.00000000       0.00000000
  18  6  6 3031     756.00000000     706.80000000       0.00000000       0.00000000
  18  7  7 3031     706.80000000     657.60000000       0.00000000       0.00000000
  18  8  8 3031     657.60000000     608.40000000       0.00000000       0.00000000
  18  9  9 3031     608.40000000     559.20000000       0.00000000       0.00000000
  18  10  10 3031     559.20000000     510.00000000       0.00000000       0.00000000
  18  11  11 3031     510.00000000     460.80000000       0.00000000       0.00000000
  18  12  12 3031     460.80000000     411.60000000       0.00000000       0.00000000
  18  13  13 3031     411.60000000     362.40000000       0.00000000       0.00000000
  18  14  14 3031     362.40000000     319.00000000       0.00000000       0.00000000
  19  1  1 3032    1322.84997559    1069.00000000       0.00000000       0.00000000
  19  2  2 3032    1069.00000000     948.00000000       0.00000000       0.00000000
  19  3  3 3032     948.00000000     854.40000000       0.00000000       0.00000000
  19  4  4 3032     854.40000000     805.20000000       0.00000000       0.00000000
  19  5  5 3032     805.20000000     756.00000000       0.00000000       0.00000000
  19  6  6 3032     756.00000000     706.80000000       0.00000000       0.00000000
  19  7  7 3032     706.80000000     657.60000000       0.00000000       0.00000000
  19  8  8 3032     657.60000000     608.40000000       0.00000000       0.00000000
  19  9  9 3032     608.40000000     559.20000000       0.00000000       0.00000000
  19  10  10 3032     559.20000000     510.00000000       0.00000000       0.00000000
  19  11  11 3032     510.00000000     460.80000000       0.00000000       0.00000000
  19  12  12 3032     460.80000000     411.60000000       0.00000000       0.00000000
  19  13  13 3032     411.60000000     362.40000000       0.00000000       0.00000000
  19  14  14 3032     362.40000000     313.20000000       0.00000000       0.00000000
  20  1  1 3035    1333.68994141    1077.00000000       0.00000000       0.00000000
  20  2  2 3035    1077.00000000     986.00000000       0.00000000       0.00000000
  20  3  3 3035     986.00000000     854.40000000       0.00000000       0.00000000
  20  4  4 3035     854.40000000     805.20000000       0.00000000       0.00000000
  20  5  5 3035     805.20000000     756.00000000       0.00000000       0.00000000
  20  6  6 3035     756.00000000     706.80000000       0.00000000       0.00000000
  20  7  7 3035     706.80000000     657.60000000       0.00000000       0.00000000
  20  8  8 3035     657.60000000     608.40000000       0.00000000       0.00000000
  20  9  9 3035     608.40000000     559.20000000       0.00000000       0.00000000
  20  10  10 3035     559.20000000     510.00000000       0.00000000       0.00000000
  20  11  11 3035     510.00000000     460.80000000       0.00000000       0.00000000
  20  12  12 3035     460.80000000     411.60000000       0.00000000       0.00000000
  20  13  13 3035     411.60000000     362.40000000       0.00000000       0.00000000
  20  14  14 3035     362.40000000     313.20000000       0.00000000       0.00000000
  20  15  15 3035     313.20000000     264.00000000       0.00000000       0.00000000
  20  16  16 3035     264.00000000     214.80000000       0.00000000       0.00000000
  20  17  17 3035     214.80000000     165.60000000       0.00000000       0.00000000
  20  18  18 3035     165.60000000     116.40000000       0.00000000       0.00000000
  20  19  19 3035     116.40000000      67.20000000       0.00000000       0.00000000
  20  20  20 3035      67.20000000      18.00000000       0.00000000       0.00000000
  20  21  21 3035      18.00000000     -31.20000000       0.00000000       0.00000000
  21  1  2 3036    1082.00000000    1022.00000000       0.00000000       0.00000000
  21  2  3 3036    1022.00000000     854.40000000       0.00000000       0.00000000
  21  3  4 3036     854.40000000     805.20000000       0.00000000       0.00000000
  21  4  5 3036     805.20000000     756.00000000       0.00000000       0.00000000
  21  5  6 3036     756.00000000     706.80000000       0.00000000       0.00000000
  21  6  7 3036     706.80000000     668.00000000       0.00000000       0.00000000
  22  1  1 3039    1233.00000000    1101.00000000       0.00000000       0.00000000
  22  2  2 3039    1101.00000000    1051.00000000       0.00000000       0.00000000
END connectiondata

BEGIN period  1
  8  status  INACTIVE
  13  status  ACTIVE
  13  rate   -2235.30000000
  13  head_limit  332.2
  13  SHUT_OFF      -0.01000000      -0.01500000
  15  status  ACTIVE
  15  rate  -93393.90000000
  15  head_limit  916.2
  15  SHUT_OFF      -0.01000000      -0.01500000
  14  status  INACTIVE
  10  status  INACTIVE
  12  status  INACTIVE
  11  status  INACTIVE
  2  status  INACTIVE
  6  status  INACTIVE
  4  status  INACTIVE
  3  status  INACTIVE
  9  status  INACTIVE
  7  status  INACTIVE
  1  status  INACTIVE
  5  status  INACTIVE
  21  status  INACTIVE
  20  status  ACTIVE
  20  rate  -57815.50000000
  20  head_limit  -31.0
  20  SHUT_OFF      -0.01000000      -0.01500000
  17  status  ACTIVE
  17  rate  -63374.40000000
  17  head_limit  116.6
  17  SHUT_OFF      -0.01000000      -0.01500000
  18  status  ACTIVE
  18  rate  -33184.40000000
  18  head_limit  319.2
  18  SHUT_OFF      -0.01000000      -0.01500000
  19  status  ACTIVE
  19  rate  -34259.60000000
  19  head_limit  313.4
  19  SHUT_OFF      -0.01000000      -0.01500000
  16  status  ACTIVE
  16  rate  -1.09278400E+05
  16  head_limit  559.4
  16  SHUT_OFF      -0.01000000      -0.01500000
  22  status  ACTIVE
  22  rate    -128.90000000
  22  head_limit  1051.2
  22  SHUT_OFF      -0.01000000      -0.01500000
END period  1

BEGIN period  2
  8  status  ACTIVE
  8  rate  -4.37867600E+05
  8  head_limit  -77.8
  8  SHUT_OFF      -0.01000000      -0.01500000
  13  rate   -2235.30000000
  13  head_limit  332.2
  13  SHUT_OFF      -0.01000000      -0.01500000
  15  rate  -93393.90000000
  15  head_limit  916.2
  15  SHUT_OFF      -0.01000000      -0.01500000
  10  status  ACTIVE
  10  rate  -56939.50000000
  10  head_limit  117.2
  10  SHUT_OFF      -0.01000000      -0.01500000
  2  status  ACTIVE
  2  rate  -65071.50000000
  2  head_limit  -218.8
  2  SHUT_OFF      -0.01000000      -0.01500000
  4  status  ACTIVE
  4  rate  -2.01198300E+05
  4  head_limit  313.4
  4  SHUT_OFF      -0.01000000      -0.01500000
  3  status  ACTIVE
  3  rate  -46795.40000000
  3  head_limit  805.4
  3  SHUT_OFF      -0.01000000      -0.01500000
  9  status  ACTIVE
  9  rate  -24345.90000000
  9  head_limit  411.8
  9  SHUT_OFF      -0.01000000      -0.01500000
  7  status  ACTIVE
  7  rate  -87845.60000000
  7  head_limit  854.6
  7  SHUT_OFF      -0.01000000      -0.01500000
  5  status  ACTIVE
  5  rate  -20691.60000000
  5  head_limit  917.2
  5  SHUT_OFF      -0.01000000      -0.01500000
  20  rate  -58485.00000000
  20  head_limit  -31.0
  20  SHUT_OFF      -0.01000000      -0.01500000
  17  rate  -71703.40000000
  17  head_limit  116.6
  17  SHUT_OFF      -0.01000000      -0.01500000
  18  rate  -33184.40000000
  18  head_limit  319.2
  18  SHUT_OFF      -0.01000000      -0.01500000
  19  rate  -34259.60000000
  19  head_limit  313.4
  19  SHUT_OFF      -0.01000000      -0.01500000
  16  rate  -1.44325700E+05
  16  head_limit  559.4
  16  SHUT_OFF      -0.01000000      -0.01500000
  22  rate     -43.00000000
  22  head_limit  1051.2
  22  SHUT_OFF      -0.01000000      -0.01500000
END period  2

BEGIN period  3
  8  rate  -2.77948700E+05
  8  head_limit  -77.8
  8  SHUT_OFF      -0.01000000      -0.01500000
  13  rate  -93261.40000000
  13  head_limit  332.2
  13  SHUT_OFF      -0.01000000      -0.01500000
  15  rate  -1.21094400E+05
  15  head_limit  916.2
  15  SHUT_OFF      -0.01000000      -0.01500000
  10  rate  -1.66005400E+05
  10  head_limit  117.2
  10  SHUT_OFF      -0.01000000      -0.01500000
  12  status  ACTIVE
  12  rate  -1.13813100E+05
  12  head_limit  -178.6
  12  SHUT_OFF      -0.01000000      -0.01500000
  11  status  ACTIVE
  11  rate  -50825.70000000
  11  head_limit  119.2
  11  SHUT_OFF      -0.01000000      -0.01500000
  2  status  INACTIVE
  6  status  ACTIVE
  6  rate  -1.13852800E+05
  6  head_limit  411.8
  6  SHUT_OFF      -0.01000000      -0.01500000
  4  rate  -88313.40000000
  4  head_limit  313.4
  4  SHUT_OFF      -0.01000000      -0.01500000
  3  rate  -65280.40000000
  3  head_limit  805.4
  3  SHUT_OFF      -0.01000000      -0.01500000
  9  rate  -1.04305400E+05
  9  head_limit  411.8
  9  SHUT_OFF      -0.01000000      -0.01500000
  7  rate  -1.06155200E+05
  7  head_limit  854.6
  7  SHUT_OFF      -0.01000000      -0.01500000
  1  status  ACTIVE
  1  rate   -6254.70000000
  1  head_limit  933.2
  1  SHUT_OFF      -0.01000000      -0.01500000
  5  status  INACTIVE
  20  rate  -81889.20000000
  20  head_limit  -31.0
  20  SHUT_OFF      -0.01000000      -0.01500000
  17  rate  -76750.40000000