BEGIN OPTIONS
END OPTIONS

BEGIN PERIOD 84
  37 2201 SS 3.032189849033832e-05
  37 2201 SY 0.10150933482764136
  38 2201 SS 3.0217336580348945e-05
  38 2201 SY 0.10239545270890725
  39 2201 SS 3.0395293311185923e-05
  39 2201 SY 0.10088734482045826
  37 2207 SS 2.836206528548256e-05
  37 2207 SY 0.11811809080099527
  38 2207 SS 2.7106901656565655e-05
  38 2207 SY 0.1287550707070707
  39 2207 SS 2.9243098442663293e-05
  39 2207 SY 0.11065170811302294
  37 2241 SS 3.0454807317468888e-05
  37 2241 SY 0.10038298883500942
  38 2241 SS 3.042827507070707e-05
  38 2241 SY 0.1006078383838384
  39 2241 SS 3.0473431016079274e-05
  39 2241 SY 0.10022516088068413
  37 2247 SS 2.947985720197939e-05
  37 2247 SY 0.10864527794932718
  38 2247 SS 2.8880939878787877e-05
  38 2247 SY 0.1137208484848485
  39 2247 SS 2.9900253402112253e-05
  39 2247 SY 0.10508259828718426
END PERIOD 84

BEGIN PERIOD 85
  37 2171 SS 2.9803354214361854e-05
  37 2171 SY 0.10590377784439108
  38 2171 SS 2.939435928741965e-05
  38 2171 SY 0.1093698365472911
  39 2171 SS 3.0090438769278185e-05
  39 2171 SY 0.10347085788747303
  37 2174 SS 2.4434467680697104e-05
  37 2174 SY 0.1514028162652788
  38 2174 SS 2.0873444275482094e-05
  38 2174 SY 0.18158098071625345
  39 2174 SS 2.6934045919901718e-05
  39 2174 SY 0.1302199498313414
  37 2176 SS 2.9208715853867115e-05
  37 2176 SY 0.11094308598417697
  38 2176 SS 2.845061370798898e-05
  38 2176 SY 0.11736768044077134
  39 2176 SS 2.9740848168460104e-05
  39 2176 SY 0.10643349009779571
  37 2177 SS 2.9789485683283453e-05
  37 2177 SY 0.10602130776878428
  38 2177 SS 2.937234865748393e-05
  38 2177 SY 0.10955636730945822
  39 2177 SS 3.0082285396683575e-05
  39 2177 SY 0.1035399542653934
  37 2198 SS 2.6528701625038807e-05
  37 2198 SY 0.1336550709742474
  38 2198 SS 2.41971854912764e-05
  38 2198 SY 0.15341368227731866
  39 2198 SS 2.816525559539167e-05
  39 2198 SY 0.11978596953057909
  37 2199 SS 2.971109651704133e-05
  37 2199 SY 0.10668562273693791
  38 2199 SS 2.924793786593205e-05
  38 2199 SY 0.11061069605142335
  39 2199 SS 3.003620004877327e-05
  39 2199 SY 0.10393050806124346
  37 2207 SS 2.441771991989031e-05
  37 2207 SY 0.15154474644160754
  38 2207 SS 2.0846864044077138e-05
  38 2207 SY 0.18180623691460057
  39 2207 SS 2.6924199835038682e-05
  39 2207 SY 0.13030339122848575
  37 2209 SS 2.84802284037031e-05
  37 2209 SY 0.11711670844319405
  38 2209 SS 2.72944373553719e-05
  38 2209 SY 0.12716578512396695
  39 2209 SS 2.9312567078119115e-05
  39 2209 SY 0.11006299086339733
  37 2247 SS 2.7155208413268465e-05
  37 2247 SY 0.12834569141297913
  38 2247 SS 2.5191509186409545e-05
  38 2247 SY 0.14498721028466482
  39 2247 SS 2.8533581790041452e-05
  39 2247 SY 0.11666456110134363
  37 2249 SS 2.8645215940925498e-05
  37 2249 SY 0.11571850897520766
  38 2249 SS 2.7556287698806244e-05
  38 2249 SY 0.12494671441689624
  39 2249 SS 2.9409564002799653e-05
  39 2249 SY 0.10924098302712158
  37 2565 SS 3.0356225036897186e-05
  37 2565 SY 0.10121843189070179
  38 2565 SS 3.0271815955922863e-05
  38 2565 SY 0.10193376308539945
  39 2565 SS 3.0415474044271393e-05
  39 2565 SY 0.10071632165871702
  37 2568 SS 2.381862575818111e-05
  37 2568 SY 0.15662181560863464
  38 2568 SS 1.989604669972452e-05
  38 2568 SY 0.18986401101928374
  39 2568 SS 2.6571989648389622e-05
  39 2568 SY 0.13328822331873202
  37 2569 SS 2.7891770705937354e-05
  37 2569 SY 0.12210363808527668
  38 2569 SS 2.6360501054178144e-05
  38 2569 SY 0.1350804995408632
  39 2569 SS 2.8966610117073423e-05
  39 2569 SY 0.11299482951632692
  37 2571 SS 2.9789952673972152e-05
  37 2571 SY 0.10601735022057497
  38 2571 SS 2.937308981450872e-05
  38 2571 SY 0.10955008631772267
  39 2571 SS 3.0082559942636685e-05
  39 2571 SY 0.10353762760477385
  37 2588 SS 2.8119555928466764e-05
  37 2588 SY 0.12017325484350198
  38 2588 SS 2.6722017079889805e-05
  38 2588 SY 0.13201680440771352
  39 2588 SS 2.9100526087000548e-05
  39 2588 SY 0.11185994841524957
  37 2590 SS 2.9499072366802404e-05
  37 2590 SY 0.10848243756947114
  38 2590 SS 2.8911436106519744e-05
  38 2590 SY 0.11346240587695133
  39 2590 SS 2.991155008504019e-05
  39 2590 SY 0.10498686368610008
END PERIOD 85

BEGIN PERIOD 86
  37 2168 SS 2.7118628568363144e-05
  37 2168 SY 0.12865569009861744
  38 2168 SS 2.513345361983471e-05
  38 2168 SY 0.14547920661157027
  39 2168 SS 2.851207633259393e-05
  39 2168 SY 0.11684681074072939
  37 2171 SS 2.6996842312450227e-05
  37 2171 SY 0.12968777701313366
  38 2171 SS 2.4940167669421487e-05
  38 2171 SY 0.14711722314049588
  39 2171 SS 2.8440477637972677e-05
  39 2171 SY 0.11745357933921459
  37 2173 SS 2.9975803771221872e-05
  37 2173 SY 0.10444234092184854
  38 2173 SS 2.9668052539944903e-05
  38 2173 SY 0.10705040220385675
  39 2173 SS 3.019182264929227e-05
  39 2173 SY 0.10261167246362483
  37 2174 SS 2.429372870338709e-05
  37 2174 SY 0.1525955194628213
  38 2174 SS 2.0650078618916435e-05
  38 2174 SY 0.18347391000918273
  39 2174 SS 2.6851304833846368e-05
  39 2174 SY 0.13092114547587824
  37 2176 SS 2.253644001758716e-05
  37 2176 SY 0.16748779646112574
  38 2176 SS 1.7861100400367308e-05
  38 2176 SY 0.207109318640955
  39 2176 SS 2.5818186800058402e-05
  39 2176 SY 0.13967638305035252
  37 2198 SS 2.314750770448245e-05
  37 2198 SY 0.16230925674167415
  38 2198 SS 1.8830920837465565e-05
  38 2198 SY 0.1988905013774105
  39 2198 SS 2.6177436287558415e-05
  39 2198 SY 0.136631895868149
  37 2206 SS 3.0467141606623842e-05
  37 2206 SY 0.10027846096081493
  38 2206 SS 3.0447850718089986e-05
  38 2206 SY 0.10044194306703397
  39 2206 SS 3.048068240085834e-05
  39 2206 SY 0.10016370846730217
  37 2207 SS 2.1069384119616144e-05
  37 2207 SY 0.17992047356257504
  38 2207 SS 1.5532748238751147e-05
  38 2207 SY 0.22684111662075296
  39 2207 SS 2.4955697965793896e-05
  39 2207 SY 0.14698561045937375
  37 2209 SS 2.5099034483146744e-05
  37 2209 SY 0.14577089421062084
  38 2209 SS 2.1928172701561064e-05
  38 2209 SY 0.17264260422405875
  39 2209 SS 2.7324747770285868e-05
  39 2209 SY 0.12690891720096723
  37 2565 SS 2.750448467713679e-05
  37 2565 SY 0.12538572307511198
  38 2565 SS 2.5745842629935718e-05
  38 2565 SY 0.14028946923783286
  39 2565 SS 2.8738922896585002e-05
  39 2565 SY 0.11492438223233048
  37 2567 SS 3.0433458742552258e-05
  37 2567 SY 0.10056390896142156
  38 2567 SS 3.039439292561983e-05
  38 2567 SY 0.10089497520661157
  39 2567 SS 3.0460880091639238e-05
  39 2567 SY 0.10033152464712511
  37 2568 SS 2.244832241801732e-05
  37 2568 SY 0.16823455577951424
  38 2568 SS 1.7721249704315885e-05
  38 2568 SY 0.20829449403122133
  39 2568 SS 2.5766382072732502e-05
  39 2568 SY 0.14011540616328388
  37 2569 SS 2.7813831325463814e-05
  37 2569 SY 0.1227641413096287
  38 2569 SS 2.623680411386593e-05
  38 2569 SY 0.13612877869605144
  39 2569 SS 2.8920789200265324e-05
  39 2569 SY 0.11338314237063285
  37 2570 SS 2.529933033975015e-05
  37 2570 SY 0.14407347169703263
  38 2570 SS 2.224606058402204e-05
  38 2570 SY 0.1699486391184573
  39 2570 SS 2.7442502616766155e-05
  39 2570 SY 0.12591099477316814
  37 2571 SS 2.9213720847055267e-05
  37 2571 SY 0.11090067078766722
  38 2571 SS 2.845855709090909e-05
  38 2571 SY 0.11730036363636363
  39 2571 SS 2.9743790626754048e-05
  39 2571 SY 0.10640855401055892
  37 2577 SS 3.0426320066176514e-05
  37 2577 SY 0.1006244062188431
  38 2577 SS 3.038306319191919e-05
  38 2577 SY 0.1009909898989899
  39 2577 SS 3.0456683231280004e-05
  39 2577 SY 0.10036709126033898
  37 2579 SS 2.683491397387217e-05
  37 2579 SY 0.13106005106887994
  38 2579 SS 2.468317255463728e-05
  38 2579 SY 0.14929514784205694
  39 2579 SS 2.8345279230122376e-05
  39 2579 SY 0.1182603455074375
  37 2588 SS 2.7502078173073177e-05
  37 2588 SY 0.12540611717734595
  38 2588 SS 2.574202328741965e-05
  38 2588 SY 0.1403218365472911
  39 2588 SS 2.8737508101883938e-05
  39 2588 SY 0.11493637201793273
  37 2590 SS 2.709308417769146e-05
  37 2590 SY 0.1288721679856656
  38 2590 SS 2.509291233057851e-05
  38 2590 SY 0.14582277685950412
  39 2590 SS 2.849705866895882e-05
  39 2590 SY 0.11697407907662019
END PERIOD 86

BEGIN PERIOD 87
  37 2165 SS 3.0304691112382732e-05
  37 2165 SY 0.10165516006455312
  38 2165 SS 3.019002689439853e-05
  38 2165 SY 0.1026268907254362
  39 2165 SS 3.0385177015303174e-05
  39 2165 SY 0.10097307614149853
  37 2168 SS 2.3932565751249573e-05
  37 2168 SY 0.15565622244703753
  38 2168 SS 2.007687991184573e-05
  38 2168 SY 0.1883315261707989
  39 2168 SS 2.6638975489331508e-05
  39 2168 SY 0.13272054670058042
  37 2171 SS 2.5798119544136823e-05
  37 2171 SY 0.13984644454121337
  38 2171 SS 2.3037684767676766e-05
  38 2171 SY 0.1632399595959596
  39 2171 SS 2.7735743062079496e-05
  39 2171 SY 0.12342590625356359
  37 2173 SS 2.6262634636413764e-05
  37 2173 SY 0.1359098759625952
  38 2173 SS 2.3774912793388427e-05
  38 2173 SY 0.15699226446280992
  39 2173 SS 2.8008833600112755e-05
  39 2173 SY 0.12111157966006142
  37 2176 SS 2.0685766296276348e-05
  37 2176 SY 0.18317147206545464
  38 2176 SS 1.4923911581267213e-05
  38 2176 SY 0.2320007493112948
  39 2176 SS 2.4730167288483734e-05
  39 2176 SY 0.14889688738573106
  37 2195 SS 2.829235832273461e-05
  37 2195 SY 0.11870882777343553
  38 2195 SS 2.699627031772268e-05
  38 2195 SY 0.12969262442607898
  39 2195 SS 2.920211740173618e-05
  39 2195 SY 0.11099900507003238
  37 2198 SS 2.197395546119148e-05
  37 2198 SY 0.1722546147356654
  38 2198 SS 1.6968385865932045e-05
  38 2198 SY 0.2146746960514233
  39 2198 SS 2.548749957798899e-05
  39 2198 SY 0.14247881713568653
  37 2206 SS 2.6260785516712205e-05
  37 2206 SY 0.13592554646854066
  38 2206 SS 2.3771978071625342e-05
  38 2206 SY 0.15701713498622588
  39 2206 SS 2.800774649490105e-05
  39 2206 SY 0.12112079241609276
  37 2207 SS 2.029782346922218e-05
  37 2207 SY 0.18645912314218493
  38 2207 SS 1.4308210769513316e-05
  38 2207 SY 0.2372185528007346
  39 2207 SS 2.450209394483164e-05
  39 2207 SY 0.15082971233193526
  37 2208 SS 2.862159959368201e-05
  37 2208 SY 0.11591864751116944
  38 2208 SS 2.7518806391184577e-05
  38 2208 SY 0.1252643526170799
  39 2208 SS 2.939567984467854e-05
  39 2208 SY 0.10935864538408015
  37 2209 SS 2.181180209318972e-05
  37 2209 SY 0.17362879582042606
  38 2209 SS 1.671103360881543e-05
  38 2209 SY 0.21685564738292012
  39 2209 SS 2.539216887430341e-05
  39 2209 SY 0.14328670445505584
  37 2567 SS 2.9007947544695632e-05
  37 2567 SY 0.1126445123330879
  38 2567 SS 2.8131976e-05
  38 2567 SY 0.12006800000000001
  39 2567 SS 2.962281556496291e-05
  39 2567 SY 0.10743376639861939
  37 2570 SS 2.1653077146887363e-05
  37 2570 SY 0.17497392248400545
  38 2570 SS 1.645912257116621e-05
  38 2570 SY 0.21899048668503218
  39 2570 SS 2.5298853755351904e-05
  39 2570 SY 0.14407751054786522
  37 2579 SS 2.345372005331581e-05
  37 2579 SY 0.1597142368363067
  38 2579 SS 1.931690790082644e-05
  38 2579 SY 0.19477196694214877
  39 2579 SS 2.6357459922289122e-05
  39 2579 SY 0.1351062718450074
END PERIOD 87

BEGIN PERIOD 88
  37 2161 SS 3.0485353424201174e-05
  37 2161 SY 0.10012412352371886
  38 2161 SS 3.047675454178145e-05
  38 2161 SY 0.10019699540863178
  39 2161 SS 3.0491389211369968e-05
  39 2161 SY 0.10007297278500028
  37 2165 SS 2.7998803333222706e-05
  37 2165 SY 0.12119658192184146
  38 2165 SS 2.6530371643709824e-05
  38 2165 SY 0.13364091827364555
  39 2165 SS 2.9029535086207073e-05
  39 2165 SY 0.11246156706604175
  37 2168 SS 2.362332533647688e-05
  37 2168 SY 0.15827690392816207
  38 2168 SS 1.9586087030303027e-05
  38 2168 SY 0.19249078787878787
  39 2168 SS 2.6457171640841687e-05
  39 2168 SY 0.13426125728100263
  37 2171 SS 2.506815492869074e-05
  37 2171 SY 0.14603258535007846
  38 2171 SS 2.187916401836547e-05
  38 2171 SY 0.17305793204775022
  39 2171 SS 2.730659353953781e-05
  39 2171 SY 0.12706276661408636
  37 2172 SS 2.447742044651686e-05
  37 2172 SY 0.15103880977528084
  38 2172 SS 2.0941614251606978e-05
  38 2172 SY 0.18100326905417813
  39 2172 SS 2.6959298046536077e-05
  39 2172 SY 0.13000594875816884
  37 2173 SS 1.940665421570587e-05
  37 2173 SY 0.19401140495164515
  38 2173 SS 1.2893843482093663e-05
  38 2173 SY 0.24920471625344354
  39 2173 SS 2.3978171478903034e-05
  39 2173 SY 0.15526973322963528
  37 2174 SS 2.4221348969954764e-05
  37 2174 SY 0.1532089070342817
  38 2174 SS 2.053520534802571e-05
  38 2174 SY 0.18444741230486683
  39 2174 SS 2.6808752458858976e-05
  39 2174 SY 0.131281758823229
  37 2194 SS 3.0471565182749956e-05
  37 2194 SY 0.10024097302754276
  38 2194 SS 3.0454871338842974e-05
  38 2194 SY 0.10038244628099174
  39 2194 SS 3.0483283041412915e-05
  39 2194 SY 0.10014166914056853
  37 2195 SS 2.100069907533378e-05
  37 2195 SY 0.18050255020903574
  38 2195 SS 1.5423738776859503e-05
  38 2195 SY 0.2277649256198347
  39 2195 SS 2.491531771406999e-05
  39 2195 SY 0.1473278159824577
  37 2197 SS 2.8771905872171278e-05
  37 2197 SY 0.11464486549007392
  38 2197 SS 2.775735623140496e-05
  38 2197 SY 0.1232427438016529
  39 2197 SS 2.948404559047416e-05
  39 2197 SY 0.10860978313157492
  37 2205 SS 3.03877185066113e-05
  37 2205 SY 0.10095153807956525
  38 2205 SS 3.0321798978879707e-05
  38 2205 SY 0.10151017814508724
  39 2205 SS 3.043398919857466e-05
  39 2205 SY 0.10055941357140118
  37 2206 SS 2.6011336022636852e-05
  37 2206 SY 0.13803952523189109
  38 2206 SS 2.337607886134068e-05
  38 2206 SY 0.1603722130394858
  39 2206 SS 2.7861094001047455e-05
  39 2206 SY 0.12236361016061481
  37 2208 SS 2.0467863244889493e-05
  37 2208 SY 0.18501810809415684
  38 2208 SS 1.457807947842057e-05
  38 2208 SY 0.23493152984389346
  39 2208 SS 2.4602061103507846e-05
  39 2208 SY 0.1499825330211199
  37 2209 SS 2.124501276337948e-05
  37 2209 SY 0.1784320952255976
  38 2209 SS 1.5811486993572084e-05
  38 2209 SY 0.22447892378328743
  39 2209 SS 2.5058950845482015e-05
  39 2209 SY 0.14611058605523716
  37 2249 SS 2.5295928135071915e-05
  37 2249 SY 0.1441023039400685
  38 2249 SS 2.2240660973370065e-05
  38 2249 SY 0.16999439853076218
  39 2249 SS 2.744050244513818e-05
  39 2249 SY 0.12592794538018492
  37 2520 SS 2.9438830567960598e-05
  37 2520 SY 0.1089929612884695
  38 2520 SS 2.8815826850321397e-05
  38 2520 SY 0.11427265381083564
  39 2520 SS 2.987613365708901e-05
  39 2520 SY 0.10528700290602533
  37 2564 SS 2.7334888952264677e-05
  37 2564 SY 0.1268229749808078
  38 2564 SS 2.547667867033976e-05
  38 2564 SY 0.14257051974288337
  39 2564 SS 2.863921679739404e-05
  39 2564 SY 0.11576934917462678
  37 2565 SS 2.7022089849968926e-05
  37 2565 SY 0.12947381483077183
  38 2565 SS 2.4980237825528007e-05
  38 2565 SY 0.14677764554637282
  39 2565 SS 2.8455320780298992e-05
  39 2565 SY 0.11732778999746613
  37 2566 SS 2.9811137665600754e-05
  37 2566 SY 0.10583781639321392
  38 2566 SS 2.9406712337924703e-05
  38 2566 SY 0.10926514967860422
  39 2566 SS 3.009501469571654e-05
  39 2566 SY 0.10343207884985983
  37 2567 SS 2.3370170503416607e-05
  37 2567 SY 0.16042228386935076
  38 2567 SS 1.9184307107438013e-05
  38 2567 SY 0.19589570247933885
  39 2567 SS 2.6308340761320355e-05
  39 2567 SY 0.13552253592101393
  37 2573 SS 3.0298479590035135e-05
  37 2573 SY 0.10170780008444803
  38 2573 SS 3.0180168639118453e-05
  38 2573 SY 0.10271043526170799
  39 2573 SS 3.0381525233020433e-05
  39 2573 SY 0.10100402344897938
  37 2578 SS 2.977354655372454e-05
  37 2578 SY 0.10615638513792765
  38 2578 SS 2.9347051797979797e-05
  38 2578 SY 0.10977074747474747
  39 2578 SS 3.0072914709810323e-05
  39 2578 SY 0.10361936686601421
  37 2579 SS 2.080208930007127e-05
  37 2579 SY 0.18218568389770112
  38 2579 SS 1.5108526861340676e-05
  38 2579 SY 0.2304362130394858
  39 2579 SS 2.4798554123808167e-05
  39 2579 SY 0.14831733793382906
  37 2601 SS 3.0496890278963635e-05
  37 2601 SY 0.1000263535681048
  38 2601 SS 3.0495064587695132e-05
  38 2601 SY 0.10004182552800735
  39 2601 SS 3.0498171780837386e-05
  39 2601 SY 0.10001549338273398
END PERIOD 88

BEGIN PERIOD 89
  37 2096 SS 3.033757108018264e-05
  37 2096 SY 0.10137651626963867
  38 2096 SS 3.0242210416896238e-05
  38 2096 SY 0.10218465748393021
  39 2096 SS 3.0404507298146642e-05
  39 2096 SY 0.10080926018519795
  37 2165 SS 2.707744982100306e-05
  37 2165 SY 0.12900466253387236
  38 2165 SS 2.5068099173553716e-05
  38 2165 SY 0.14603305785123966
  39 2165 SS 2.8487867159444434e-05
  39 2165 SY 0.11705197322504712
  37 2166 SS 2.6937134412316113e-05
  37 2166 SY 0.1301937761668126
  38 2166 SS 2.4845405759412306e-05
  38 2166 SY 0.147920290174472
  39 2166 SS 2.840537509150956e-05
  39 2166 SY 0.11775105854652917
  37 2167 SS 2.7462551644234946e-05
  37 2167 SY 0.1257410877607208
  38 2167 SS 2.567929106336088e-05
  38 2167 SY 0.1408534655647383
  39 2167 SS 2.8714270275524248e-05
  39 2167 SY 0.11513330274979451
  37 2170 SS 3.014510100438338e-05
  37 2170 SY 0.10300761860692051
  38 2170 SS 2.993674276584022e-05
  38 2170 SY 0.10477336639118458
  39 2170 SS 3.0291353263849097e-05
  39 2170 SY 0.10176819267924493
  37 2171 SS 1.9582175805165124e-05
  37 2171 SY 0.1925239338545328
  38 2171 SS 1.3172412334251604e-05
  38 2171 SY 0.24684396326905417
  39 2171 SS 2.4081361423208922e-05
  39 2171 SY 0.15439524217619555
  37 2172 SS 2.444197202993731e-05
  37 2172 SY 0.15133922008527706
  38 2172 SS 2.088535436547291e-05
  38 2172 SY 0.18148004775022958
  39 2172 SS 2.693845776094232e-05
  39 2172 SY 0.13018256134794642
  37 2173 SS 1.933516449553804e-05
  37 2173 SY 0.19461725003781322
  38 2173 SS 1.2780382743801652e-05
  38 2173 SY 0.2501662479338843
  39 2173 SS 2.393614234674217e-05
  39 2173 SY 0.15562591231574432
  37 2194 SS 2.8401511798026642e-05
  37 2194 SY 0.11778379832180812
  38 2194 SS 2.716950688705234e-05
  38 2194 SY 0.12822451790633607
  39 2194 SS 2.9266289226699557e-05
  39 2194 SY 0.11045517604491899
  37 2195 SS 1.952549214864264e-05
  37 2195 SY 0.19300430382506234
  38 2195 SS 1.3082450174471993e-05
  38 2195 SY 0.24760635445362716
  39 2195 SS 2.4048036841772398e-05
  39 2195 SY 0.15467765388328475
  37 2196 SS 2.6542021237237508e-05
  37 2196 SY 0.13354219290476688
  38 2196 SS 2.4218324936639117e-05
  38 2196 SY 0.1532345344352617
  39 2196 SS 2.8173086256076483e-05
  39 2196 SY 0.11971960799935184
  37 2197 SS 2.7929329046537186e-05
  37 2197 SY 0.12178534706324419
  38 2197 SS 2.6420109583103765e-05
  38 2197 SY 0.13457534251606978
  39 2197 SS 2.8988690836596954e-05
  39 2197 SY 0.11280770477460207
  37 2199 SS 2.634472340623676e-05
  37 2199 SY 0.13521420842172238
  38 2199 SS 2.390519519559229e-05
  38 2199 SY 0.15588817630853996
  39 2199 SS 2.8057093962504497e-05
  39 2199 SY 0.12070259353809747
  37 2201 SS 3.030689989641207e-05
  37 2201 SY 0.10163644155582989
  38 2201 SS 3.0193532437098256e-05
  38 2201 SY 0.10259718273645548
  39 2201 SS 3.0386475569495425e-05
  39 2201 SY 0.100962071444954
  37 2205 SS 2.2443347465165874e-05
  37 2205 SY 0.1682767163968994
  38 2205 SS 1.771335399816345e-05
  38 2205 SY 0.20836140679522497
  39 2205 SS 2.576345727528934e-05
  39 2205 SY 0.1401401925822937
  37 2208 SS 1.9311517833366172e-05
  37 2208 SY 0.19481764547994768
  38 2208 SS 1.2742853325987143e-05
  38 2208 SY 0.2504842938475666
  39 2208 SS 2.3922240368714793e-05
  39 2208 SY 0.1557437256888577
  37 2209 SS 2.0083479385708115e-05
  37 2209 SY 0.1882755984262024
  38 2209 SS 1.3968027063360881e-05
  38 2209 SY 0.24010146556473827
  39 2209 SS 2.4376080081758416e-05
  39 2209 SY 0.15189762642577614
  37 2249 SS 2.3713148674148854e-05
  37 2249 SY 0.15751568920212838
  38 2249 SS 1.9728644899908176e-05
  38 2249 SY 0.19128267033976123
  39 2249 SS 2.650997919022026e-05
  39 2249 SY 0.13381373567609944
  37 2517 SS 3.030464632497165e-05
  37 2517 SY 0.10165553961888431
  38 2517 SS 3.0189955812672176e-05
  38 2517 SY 0.10262749311294767
  39 2517 SS 3.0385150684580185e-05
  39 2517 SY 0.10097329928321876
  37 2520 SS 2.6900921059514587e-05
  37 2520 SY 0.1305006689871645
  38 2520 SS 2.478793184940312e-05
  38 2520 SY 0.1484073572084481
  39 2520 SS 2.8384085096445554e-05
  39 2520 SY 0.11793148223351226
  37 2521 SS 2.7534361430548523e-05
  37 2521 SY 0.12513253024958879
  38 2521 SS 2.5793259775941232e-05
  38 2521 SY 0.1398876290174472
  39 2521 SS 2.8756487576009658e-05
  39 2521 SY 0.1147755290168673
  37 2564 SS 2.2901236751123927e-05
  37 2564 SY 0.16439629871928876
  38 2564 SS 1.8440066262626265e-05
  38 2564 SY 0.2022028282828283
  39 2564 SS 2.6032652472271013e-05
  39 2564 SY 0.13785887735363547
  37 2566 SS 2.6349518936349907e-05
  37 2566 SY 0.13517356833601774
  38 2566 SS 2.3912806141414138e-05
  38 2566 SY 0.15582367676767678
  39 2566 SS 2.8059913276502526e-05
  39 2566 SY 0.12067870104658875
  37 2567 SS 2.1528602553926183e-05
  37 2567 SY 0.17602879191587978
  38 2567 SS 1.6261569983471075e-05
  38 2567 SY 0.22066466115702477
  39 2567 SS 2.5225674575146197e-05
  39 2567 SY 0.14469767309198134
  37 2572 SS 2.8537222022865755e-05
  37 2572 SY 0.1166337116706292
  38 2572 SS 2.7384891452708907e-05
  38 2572 SY 0.12639922497704315
  39 2572 SS 2.9346073886440887e-05
  39 2572 SY 0.10977903486067048
  37 2573 SS 2.7420840909817946e-05
  37 2573 SY 0.12609456856086487
  38 2573 SS 2.561309230486685e-05
  38 2573 SY 0.1414144719926538
  39 2573 SS 2.868974834476604e-05
  39 2573 SY 0.11534111572232171
  37 2578 SS 2.73665506478643e-05
  37 2578 SY 0.12655465552657372
  38 2578 SS 2.552692868319559e-05
  38 2578 SY 0.14214467217630855
  39 2578 SS 2.865783085246171e-05
  39 2578 SY 0.1156116029452397
  37 2579 SS 2.077905901248739e-05
  37 2579 SY 0.18238085582637809
  38 2579 SS 1.5071975684113863e-05
  38 2579 SY 0.23074596877869608
  39 2579 SS 2.478501451283056e-05
  39 2579 SY 0.14843208039974104
  37 2596 SS 2.870728774246026e-05
  37 2596 SY 0.11519247675881138
  38 2596 SS 2.7654801337006428e-05
  38 2596 SY 0.12411185307621672
  39 2596 SS 2.9446056297670006e-05
  39 2596 SY 0.10893172629093216
  37 2597 SS 2.8395374283909226e-05
  37 2597 SY 0.11783581115331165
  38 2597 SS 2.7159766089990817e-05
  38 2597 SY 0.12830706703397612
  39 2597 SS 2.9262680954566713e-05
  39 2597 SY 0.11048575462231597
  37 2598 SS 2.8231885486394184e-05
  37 2598 SY 0.11922130943733741
  38 2598 SS 2.690029438383838e-05
  38 2598 SY 0.1305059797979798
  39 2598 SS 2.9166565145787144e-05
  39 2598 SY 0.11130029537468521
  37 2599 SS 2.9903294864340323e-05
  37 2599 SY 0.10505682318355658
  38 2599 SS 2.955297425895317e-05
  38 2599 SY 0.10802564187327825
  39 2599 SS 3.0149194332647917e-05
  39 2599 SY 0.10297292938433968
  37 2600 SS 2.9568609738194995e-05
  37 2600 SY 0.10789313781190682
  38 2600 SS 2.9021798288337925e-05
  38 2600 SY 0.1125271331496786
  39 2600 SS 2.9952431422436957e-05
  39 2600 SY 0.10464041167426308
  37 2601 SS 3.0476935302575895e-05
  37 2601 SY 0.10019546353749238
  38 2601 SS 3.046339421120294e-05
  38 2601 SY 0.10031021854912764
  39 2601 SS 3.048644015932058e-05
  39 2601 SY 0.10011491390406287
END PERIOD 89

BEGIN PERIOD 90
  37 2163 SS 2.976802268199555e-05
  37 2163 SY 0.10620319761020719
  38 2163 SS 2.933828490725436e-05
  38 2163 SY 0.10984504315886134
  39 2163 SS 3.0069667200455213e-05
  39 2163 SY 0.10364688813173552
  37 2165 SS 2.7063450751007047e-05
  37 2165 SY 0.12912329872027928
  38 2165 SS 2.5045881366391187e-05
  38 2165 SY 0.14622134435261708
  39 2165 SS 2.847963704242547e-05
  39 2165 SY 0.11712171997944519
  37 2166 SS 2.1238539343933344e-05
  37 2166 SY 0.17848695471242926
  38 2166 SS 1.58012130835629e-05
  38 2166 SY 0.22456599081726353
  39 2166 SS 2.5055145092672377e-05
  39 2166 SY 0.14614283819769172
  37 2168 SS 2.3305842399502647e-05
  37 2168 SY 0.16096743729235047
  38 2168 SS 1.908221251056015e-05
  38 2168 SY 0.1967609109274564
  39 2168 SS 2.627052197600195e-05
  39 2168 SY 0.1358430341016784
  37 2170 SS 2.6979002995040465e-05
  37 2170 SY 0.1298389576691486
  38 2170 SS 2.4911855037649217e-05
  38 2170 SY 0.14735716069788798
  39 2170 SS 2.842998982201829e-05
  39 2170 SY 0.11754245913543825
  37 2171 SS 1.9366902109777203e-05
  37 2171 SY 0.19434828720527791
  38 2171 SS 1.2830753248852158e-05
  38 2171 SY 0.2497393792470156
  39 2171 SS 2.395480103708049e-05
  39 2171 SY 0.1554677878213518
  37 2194 SS 2.332974713536767e-05
  37 2194 SY 0.16076485478501973
  38 2194 SS 1.9120151515151516e-05
  38 2194 SY 0.19643939393939397
  39 2194 SS 2.6284575676901376e-05
  39 2194 SY 0.13572393494151375
  37 2198 SS 2.045773828595185e-05
  37 2198 SY 0.1851039128309165
  38 2198 SS 1.4562010240587694e-05
  38 2198 SY 0.235067709825528
  39 2198 SS 2.459610859402739e-05
  39 2198 SY 0.15003297801671706
  37 2199 SS 2.555387795205743e-05
  37 2199 SY 0.14191628854188615
  38 2199 SS 2.265005097520661e-05
  38 2199 SY 0.1665249917355372
  39 2199 SS 2.7592152317551126e-05
  39 2199 SY 0.12464277696990572
  37 2200 SS 2.9840144341624067e-05
  37 2200 SY 0.10559199710488078
  38 2200 SS 2.9452748591368227e-05
  38 2200 SY 0.1088750119375574
  39 2200 SS 3.0112067852681202e-05
  39 2200 SY 0.10328756057049829
  37 2201 SS 2.3178987792592084e-05
  37 2201 SY 0.1620424763339654
  38 2201 SS 1.8880882622589526e-05
  38 2201 SY 0.19846709641873278
  39 2201 SS 2.6195943574755374e-05
  39 2201 SY 0.13647505445122562
  37 2241 SS 3.0406212157165577e-05
  37 2241 SY 0.10079481222741035
  38 2241 SS 3.0351150097337006e-05
  38 2241 SY 0.10126143985307622
  39 2241 SS 3.044486169997738e-05
  39 2241 SY 0.10046727372900525
  37 2517 SS 2.5591957902139942e-05
  37 2517 SY 0.14159357710050902
  38 2517 SS 2.2710487346189165e-05
  38 2517 SY 0.16601281910009186
  39 2517 SS 2.7614539693665575e-05
  39 2517 SY 0.12445305344351205
  37 2520 SS 2.654204936591641e-05
  37 2520 SY 0.1335419545261321
  38 2520 SS 2.4218369579430672e-05
  38 2520 SY 0.15323415610651975
  39 2520 SS 2.8173102793054948e-05
  39 2520 SY 0.11971946785546651
  37 2521 SS 2.2262366179590554e-05
  37 2521 SY 0.16981045610516476
  38 2521 SS 1.7426120110192837e-05
  38 2521 SY 0.2107955922865014
  39 2521 SS 2.5657057553097764e-05
  39 2521 SY 0.1410418851432393
  37 2523 SS 2.76685382329818e-05
  37 2523 SY 0.12399543870354404
  38 2523 SS 2.6006210659320477e-05
  38 2523 SY 0.13808296051423324
  39 2523 SS 2.8835370729359308e-05
  39 2523 SY 0.11410702771729402
  37 2529 SS 3.0481314910572752e-05
  37 2529 SY 0.10015834821548515
  38 2529 SS 3.0470345050505053e-05
  38 2529 SY 0.10025131313131314
  39 2529 SS 3.0489014950811824e-05
  39 2529 SY 0.10009309363718794
  37 2555 SS 2.9491393510554013e-05
  37 2555 SY 0.10854751262242363
  38 2555 SS 2.8899249057851242e-05
  38 2555 SY 0.11356568595041323
  39 2555 SS 2.99070356504732e-05
  39 2555 SY 0.10502512160615932
  37 2564 SS 2.0420229375360625e-05
  37 2564 SY 0.18542178495457096
  38 2564 SS 1.4502480161616159e-05
  38 2564 SY 0.23557220202020202
  39 2564 SS 2.4574056934631016e-05
  39 2564 SY 0.1502198564861778
  37 2566 SS 2.019089325217558e-05
  37 2566 SY 0.18736531142224083
  38 2566 SS 1.4138502714416892e-05
  38 2566 SY 0.23865675665748395
  39 2566 SS 2.443922918314385e-05
  39 2566 SY 0.15136246454962843
  37 2572 SS 2.501232277816896e-05
  37 2572 SY 0.14650573916805965
  38 2572 SS 2.1790553278236912e-05
  38 2572 SY 0.17380887052341598
  39 2572 SS 2.7273769563942185e-05
  39 2572 SY 0.12734093589879503
  37 2596 SS 2.8686961631367295e-05
  37 2596 SY 0.11536473193756532
  38 2596 SS 2.7622541935720845e-05
  38 2596 SY 0.1243852378328742
  39 2596 SS 2.943410648436941e-05
  39 2596 SY 0.10903299589517448
  37 2598 SS 2.2498891774629697e-05
  37 2598 SY 0.16780600190991785
  38 2598 SS 1.7801507908172637e-05
  38 2598 SY 0.20761433976124885
  39 2598 SS 2.5796112027837383e-05
  39 2598 SY 0.1398634573912086
END PERIOD 90

BEGIN PERIOD 91
  37 2159 SS 2.9055984227830288e-05
  37 2159 SY 0.1122374217980484
  38 2159 SS 2.8208214618916438e-05
  38 2159 SY 0.11942191000918274
  39 2159 SS 2.9651056549793403e-05
  39 2159 SY 0.10719443601869999
  37 2161 SS 2.7499312823533078e-05
  37 2161 SY 0.12542955234294
  38 2161 SS 2.5737634424242424e-05
  38 2161 SY 0.14035903030303032
  39 2161 SS 2.8735882340292503e-05
  39 2161 SY 0.11495014965853813
  37 2163 SS 2.829615678677087e-05
  37 2163 SY 0.11867663740024685
  38 2163 SS 2.7002298828282828e-05
  38 2163 SY 0.12964153535353534
  39 2163 SS 2.920435053603376e-05
  39 2163 SY 0.1109800802031037
  37 2165 SS 2.5192342226788827e-05
  37 2165 SY 0.14498015062043368
  38 2165 SS 2.2076260642791553e-05
  38 2165 SY 0.17138762167125804
  39 2165 SS 2.737960381779539e-05
  39 2165 SY 0.12644403544241198
  37 2168 SS 2.32674453873211e-05
  37 2168 SY 0.1612928357006686
  38 2168 SS 1.9021272932966022e-05
  38 2168 SY 0.19727734802571167
  39 2168 SS 2.6247948197634994e-05
  39 2168 SY 0.13603433730817802
  37 2170 SS 2.3428586669068963e-05
  37 2170 SY 0.1599272316180596
  38 2170 SS 1.9277018916437093e-05
  38 2170 SY 0.19511000918273647
  39 2170 SS 2.6342683891203396e-05
  39 2170 SY 0.13523149244742882
  37 2172 SS 2.3969512907585907e-05
  37 2172 SY 0.15534311095266184
  38 2172 SS 2.0135518435261707e-05
  38 2172 SY 0.18783458953168042
  39 2172 SS 2.6660696890776808e-05
  39 2172 SY 0.1325364670273152
  37 2197 SS 2.7916109659825472e-05
  37 2197 SY 0.1218973757641909
  38 2197 SS 2.6399129204775025e-05
  38 2197 SY 0.13475314233241506
  39 2197 SS 2.898091909893249e-05
  39 2197 SY 0.11287356695819925
  37 2198 SS 1.983111898300656e-05
  37 2198 SY 0.19041424590672407
  38 2198 SS 1.3567507974288336e-05
  38 2198 SY 0.24349569513314967
  39 2198 SS 2.4227716251463756e-05
  39 2198 SY 0.15315494702149363
  37 2200 SS 2.274420526052943e-05
  37 2200 SY 0.16572707406330994
  38 2200 SS 1.819084289439853e-05
  38 2200 SY 0.20431489072543615
  39 2200 SS 2.59403329436443e-05
  39 2200 SY 0.13864124624030255
  37 2201 SS 2.0886850021727474e-05
  37 2201 SY 0.1814673726972248
  38 2201 SS 1.5243049895316804e-05
  38 2201 SY 0.2292961873278237
  39 2201 SS 2.484838533816988e-05