# File generated by Flopy version 3.8.0.dev0 on 07/05/2024 at 09:13:29.
BEGIN Options
memory_print_option all
END Options

BEGIN TIMING
  TDIS6  sp_mf6.tdis
END TIMING

BEGIN MODELS
  gwf6  sp_mf6.nam  sp_mf6
END MODELS

BEGIN EXCHANGES
END EXCHANGES

BEGIN SOLUTIONGROUP  1
  MXITER  1
  ims6  sp_mf6.ims  sp_mf6
END SOLUTIONGROUP  1

