# File generated by Flopy version 3.8.0.dev0 on 07/05/2024 at 09:13:29.
BEGIN Options
  LIST  sp_mf6.lst
  SAVE_FLOWS
  NEWTON  UNDER_RELAXATION
END Options

BEGIN Packages
  rch6  sp_mf6.rcha  rch-1
  ghb6  sp_mf6.ghb
  evt6  sp_mf6.evt
  drn6  sp_mf6.drn
  oc6  sp_mf6.oc
  npf6  sp_mf6.npf
  sto6  sp_mf6.sto
  ic6  sp_mf6.ic
  dis6  sp_mf6.dis
  sfr6  sp_mf6.sfr  sfr-1
END Packages

