# File generated by Flopy version 3.8.0.dev0 on 07/05/2024 at 09:13:29.
BEGIN Options
  PRINT_OPTION  summary
  COMPLEXITY  simple
END Options

BEGIN Nonlinear
  OUTER_DVCLOSE  1.00000000E-05
  OUTER_MAXIMUM  500
END Nonlinear

BEGIN LINEAR
  INNER_MAXIMUM  100
  INNER_DVCLOSE  1.00000000E-06
  INNER_RCLOSE       0.00100000
  LINEAR_ACCELERATION  bicgstab
  RELAXATION_FACTOR       0.97000000
END LINEAR

