# File generated by Flopy version 3.8.0.dev0 on 07/05/2024 at 09:13:31.
BEGIN Options
  PRINT_INPUT
  PRINT_FLOWS
END Options

BEGIN Dimensions
  MAXBOUND  140
END Dimensions

BEGIN PERIOD  1
  4 37 234 1.24532810E+03  100000.
  4 37 235 1.24577710E+03  100000.
  4 38 233 1.24327670E+03  100000.
  4 38 234 1.24439920E+03  100000.
  4 39 232 1.24122530E+03  100000.
  4 39 233 1.24234790E+03  100000.
  4 40 231 1.23917400E+03  100000.
  4 40 232 1.24029650E+03  100000.
  4 41 229 1.23619380E+03  100000.
  4 41 230 1.23719460E+03  100000.
  4 41 231 1.23824510E+03  100000.
  4 42 228 1.23414240E+03  100000.
  4 42 229 1.23526490E+03  100000.
  4 43 227 1.23209100E+03  100000.
  4 43 228 1.23321350E+03  100000.
  4 44 226 1.23003970E+03  100000.
  4 44 227 1.23116220E+03  100000.
  4 45 225 1.22798830E+03  100000.
  4 45 226 1.22911080E+03  100000.
  4 46 223 1.22500810E+03  100000.
  4 46 224 1.22604850E+03  100000.
  4 46 225 1.22705940E+03  100000.
  4 47 222 1.22295670E+03  100000.
  4 47 223 1.22407920E+03  100000.
  4 48 221 1.22090530E+03  100000.
  4 48 222 1.22202790E+03  100000.
  4 49 220 1.21885400E+03  100000.
  4 49 221 1.21997650E+03  100000.
  4 50 219 1.21680260E+03  100000.
  4 50 220 1.21792510E+03  100000.
  4 51 217 1.21382240E+03  100000.
  4 51 218 1.21490240E+03  100000.
  4 51 219 1.21587380E+03  100000.
  4 52 216 1.21177100E+03  100000.
  4 52 217 1.21289360E+03  100000.
  4 53 215 1.20971970E+03  100000.
  4 53 216 1.21084220E+03  100000.
  4 54 214 1.20766830E+03  100000.
  4 54 215 1.20879080E+03  100000.
  4 55 213 1.20561690E+03  100000.
  4 55 214 1.20673940E+03  100000.
  4 56 211 1.20263670E+03  100000.
  4 56 212 1.20375630E+03  100000.
  4 56 213 1.20468810E+03  100000.
  4 57 210 1.20058530E+03  100000.
  4 57 211 1.20170790E+03  100000.
  4 58 209 1.19853400E+03  100000.
  4 58 210 1.19965650E+03  100000.
  4 59 208 1.19648260E+03  100000.
  4 59 209 1.19760510E+03  100000.
  4 60 206 1.19350240E+03  100000.
  4 60 207 1.19446790E+03  100000.
  4 60 208 1.19555380E+03  100000.
  4 61 205 1.19145100E+03  100000.
  4 61 206 1.19257360E+03  100000.
  4 62 204 1.18939970E+03  100000.
  4 62 205 1.19052220E+03  100000.
  4 63 203 1.18748300E+03  100000.
  4 63 204 1.18847080E+03  100000.
  5 37 234 1.24532810E+03  100000.
  5 37 235 1.24577710E+03  100000.
  5 38 233 1.24327670E+03  100000.
  5 38 234 1.24439920E+03  100000.
  5 39 232 1.24122530E+03  100000.
  5 39 233 1.24234790E+03  100000.
  5 40 231 1.23917400E+03  100000.
  5 40 232 1.24029650E+03  100000.
  5 41 229 1.23619380E+03  100000.
  5 41 230 1.23719460E+03  100000.
  5 41 231 1.23824510E+03  100000.
  5 42 228 1.23414240E+03  100000.
  5 42 229 1.23526490E+03  100000.
  5 43 227 1.23209100E+03  100000.
  5 43 228 1.23321350E+03  100000.
  5 44 226 1.23003970E+03  100000.
  5 44 227 1.23116220E+03  100000.
  5 45 225 1.22798830E+03  100000.
  5 45 226 1.22911080E+03  100000.
  5 46 223 1.22500810E+03  100000.
  5 46 224 1.22604850E+03  100000.
  5 46 225 1.22705940E+03  100000.
  5 47 222 1.22295670E+03  100000.
  5 47 223 1.22407920E+03  100000.
  5 48 221 1.22090530E+03  100000.
  5 48 222 1.22202790E+03  100000.
  5 49 220 1.21885400E+03  100000.
  5 49 221 1.21997650E+03  100000.
  5 50 219 1.21680260E+03  100000.
  5 50 220 1.21792510E+03  100000.
  5 51 217 1.21382240E+03  100000.
  5 51 218 1.21490240E+03  100000.
  5 51 219 1.21587380E+03  100000.
  5 52 216 1.21177100E+03  100000.
  5 52 217 1.21289360E+03  100000.
  5 53 215 1.20971970E+03  100000.
  5 53 216 1.21084220E+03  100000.
  5 54 214 1.20766830E+03  100000.
  5 54 215 1.20879080E+03  100000.
  5 55 213 1.20561690E+03  100000.
  5 55 214 1.20673940E+03  100000.
  5 56 211 1.20263670E+03  100000.
  5 56 212 1.20375630E+03  100000.
  5 56 213 1.20468810E+03  100000.
  5 57 210 1.20058530E+03  100000.
  5 57 211 1.20170790E+03  100000.
  5 58 209 1.19853400E+03  100000.
  5 58 210 1.19965650E+03  100000.
  5 59 208 1.19648260E+03  100000.
  5 59 209 1.19760510E+03  100000.
  5 60 206 1.19350240E+03  100000.
  5 60 207 1.19446790E+03  100000.
  5 60 208 1.19555380E+03  100000.
  5 61 170 1.19056210E+03  100000.
  5 61 171 1.18940360E+03  100000.
  5 61 205 1.19145100E+03  100000.
  5 61 206 1.19257360E+03  100000.
  5 62 171 1.18800160E+03  100000.
  5 62 172 1.18641290E+03  100000.
  5 62 204 1.18939970E+03  100000.
  5 62 205 1.19052220E+03  100000.
  5 63 172 1.18501090E+03  100000.
  5 63 173 1.18342230E+03  100000.
  5 63 203 1.18748300E+03  100000.
  5 63 204 1.18847080E+03  100000.
  5 64 173 1.18202030E+03  100000.
  5 64 174 1.18043160E+03  100000.
  5 65 174 1.17902960E+03  100000.
  5 65 175 1.17750620E+03  100000.
  5 65 176 1.17603890E+03  100000.
  5 66 176 1.17463690E+03  100000.
  5 66 177 1.17304820E+03  100000.
  5 67 177 1.17164620E+03  100000.
  5 67 178 1.17005750E+03  100000.
  5 68 178 1.16865550E+03  100000.
  5 68 179 1.16706690E+03  100000.
  5 69 179 1.16572070E+03  100000.
  5 70 185 1.15810000E+03  100000.
  5 70 186 1.15810000E+03  100000.
  5 71 184 1.15810000E+03  100000.
  5 71 185 1.15810000E+03  100000.
END PERIOD  1

