# File generated by Flopy version 3.8.0.dev0 on 07/05/2024 at 09:13:29.
BEGIN Options
  TIME_UNITS  days
END Options

BEGIN Dimensions
  NPER  1
END Dimensions

BEGIN PERIODDATA
   3652.5  10       1.00000000
END PERIODDATA

