# File generated by Flopy version 3.9.2 on 05/15/2025 at 11:19:59.
BEGIN options
  MEMORY_PRINT_OPTION  all
END options

BEGIN timing
  TDIS6  snglhdtest.tdis
END timing

BEGIN models
  gwf6  snglhdtest.nam  snglhdtest
END models

BEGIN exchanges
END exchanges

BEGIN solutiongroup  1
  ims6  snglhdtest.ims  snglhdtest
END solutiongroup  1

