# File generated by Flopy version 3.9.2 on 05/15/2025 at 11:19:59.
BEGIN options
  COMPLEXITY  simple
END options

BEGIN linear
  LINEAR_ACCELERATION  bicgstab
END linear

