# File generated by Flopy version 3.9.2 on 05/15/2025 at 11:19:59.
BEGIN options
  BUDGET  FILEOUT  snglhdtest.cbb
  HEAD  FILEOUT  snglhdtest.hds
END options

BEGIN period  1
  SAVE  HEAD  ALL
  SAVE  BUDGET  ALL
  PRINT  HEAD  ALL
END period  1

