# File generated by Flopy version 3.9.2 on 05/15/2025 at 11:19:59.
BEGIN options
END options

BEGIN dimensions
  MAXBOUND  7
END dimensions

BEGIN period  1
  1 1 0.00000000E+00
  1 8 0.00000000E+00
  1 15 0.00000000E+00
  1 19 0.00000000E+00
  1 23 0.00000000E+00
  1 27 0.00000000E+00
  1 34 0.00000000E+00
END period  1

