# File generated by Flopy version 3.9.2 on 05/15/2025 at 11:19:59.
BEGIN options
END options

BEGIN dimensions
  MAXBOUND  1
END dimensions

BEGIN period  1
  1 81 -3.00000000E+02
END period  1

