# File generated by Flopy version 3.9.2 on 05/15/2025 at 11:19:59.
BEGIN options
END options

BEGIN dimensions
  MAXBOUND  7
END dimensions

BEGIN period  1
  1 7 1.00000000E+02
  1 14 1.00000000E+02
  1 18 1.00000000E+02
  1 22 1.00000000E+02
  1 26 1.00000000E+02
  1 33 1.00000000E+02
  1 40 1.00000000E+02
END period  1

