# File generated by Flopy version 3.9.2 on 05/15/2025 at 11:19:59.
BEGIN options
END options

BEGIN griddata
  strt
    CONSTANT       0.00000000
END griddata

