# File generated by Flopy version 3.9.2 on 05/15/2025 at 11:19:59.
BEGIN options
  SAVE_FLOWS
  NEWTON  UNDER_RELAXATION
END options

BEGIN packages
  DISV6  snglhdtest.disv  disv
  IC6  snglhdtest.ic  ic
  STO6  snglhdtest.sto  sto
  CHD6  snglhdtest.left.chd  chd_0
  CHD6  snglhdtest.right.chd  chd_1
  WEL6  snglhdtest.wel  wel_0
  OC6  snglhdtest.oc  oc
  NPF6  snglhdtest.npf  npf
END packages

