# File generated by Flopy version 3.3.4 on 02/13/2023 at 10:08:02.
BEGIN Options
  SAVE_FLOWS
END Options

BEGIN GRIDDATA
  icelltype  LAYERED
    CONSTANT  0
  k  LAYERED
    OPEN/CLOSE  'npf_k_0.dat'  FACTOR  1.0
END GRIDDATA

