# File generated by Flopy version 3.3.4 on 02/13/2023 at 10:08:02.
BEGIN Options
  TIME_UNITS  days
END Options

BEGIN Dimensions
  NPER  25
END Dimensions

BEGIN PERIODDATA
       1.00000000  1       1.00000000
      31.00000000  1       1.00000000
      29.00000000  1       1.00000000
      31.00000000  1       1.00000000
      30.00000000  1       1.00000000
      31.00000000  1       1.00000000
      30.00000000  1       1.00000000
      31.00000000  1       1.00000000
      31.00000000  1       1.00000000
      30.00000000  1       1.00000000
      31.00000000  1       1.00000000
      30.00000000  1       1.00000000
      31.00000000  1       1.00000000
      31.00000000  1       1.00000000
      28.00000000  1       1.00000000
      31.00000000  1       1.00000000
      30.00000000  1       1.00000000
      31.00000000  1       1.00000000
      30.00000000  1       1.00000000
      31.00000000  1       1.00000000
      31.00000000  1       1.00000000
      30.00000000  1       1.00000000
      31.00000000  1       1.00000000
      30.00000000  1       1.00000000
      31.00000000  1       1.00000000
END PERIODDATA

