# File generated by Flopy version 3.3.4 on 02/13/2023 at 10:08:02.
BEGIN Options
  LENGTH_UNITS  meters
END Options

BEGIN Dimensions
  NLAY  1
  NROW  40
  NCOL  20
END Dimensions

BEGIN GRIDDATA
  delr
    CONSTANT     250.00000000
  delc
    CONSTANT     250.00000000
  top
    CONSTANT      40.00000000
  botm  LAYERED
    CONSTANT       0.00000000
  idomain  LAYERED
    INTERNAL  FACTOR  1  IPRN  5
    1  1  1  1  1  1  1  1  1  1  1  1  1  1  1  1  1  1  1  1
    1  1  1  1  1  1  1  1  1  1  1  1  1  1  1  1  1  1  1  1
    1  1  1  1  1  1  1  1  1  1  1  1  1  1  1  1  1  1  1  1
    1  1  1  1  1  1  1  1  1  1  1  1  1  1  1  1  1  1  1  1
    1  1  1  1  1  1  1  1  1  1  1  1  1  1  1  1  1  1  1  1
    1  1  1  1  1  1  1  1  1  1  1  1  1  1  1  1  1  1  1  1
    1  1  1  1  1  1  1  1  1  1  1  1  1  1  1  1  1  1  1  1
    1  1  1  1  1  1  1  1  1  1  1  1  1  1  1  1  1  1  1  1
    1  1  1  1  0  0  0  1  1  1  1  1  1  1  1  1  1  1  1  1
    1  1  1  1  0  0  0  0  1  1  1  1  1  1  1  1  1  1  1  1
    1  1  1  1  0  0  0  0  1  1  1  1  1  1  1  1  1  1  1  1
    1  1  1  1  0  0  0  0  1  1  1  1  1  1  1  1  1  1  1  1
    1  1  1  1  0  0  0  0  1  1  1  1  1  1  1  1  1  1  1  1
    1  1  1  1  0  0  0  0  1  1  1  1  1  1  1  1  1  1  1  1
    1  1  1  1  0  0  0  0  1  1  1  1  1  1  1  1  1  1  1  1
    1  1  1  1  0  0  0  0  1  1  1  1  1  1  1  1  1  1  1  1
    1  1  1  1  0  0  0  0  1  1  1  1  1  1  1  1  1  1  1  1
    1  1  1  1  0  0  0  0  1  1  1  1  1  1  1  1  1  1  1  1
    1  1  1  1  0  0  0  0  1  1  1  1  1  1  1  1  1  1  1  1
    1  1  1  1  0  0  0  0  1  1  1  1  1  1  1  1  1  1  1  1
    1  1  1  1  0  0  0  0  1  1  1  1  1  1  1  1  1  1  1  1
    1  1  1  1  0  0  1  1  1  1  1  1  1  1  1  1  1  1  1  1
    1  1  1  1  1  0  1  1  1  1  1  1  1  1  1  1  1  1  1  1
    1  1  1  1  1  1  1  1  1  1  1  1  1  1  1  1  1  1  1  1
    1  1  1  1  1  1  1  1  1  1  1  1  1  1  1  1  1  1  1  1
    1  1  1  1  1  1  1  1  1  1  1  1  1  1  1  1  1  1  1  1
    1  1  1  1  1  1  1  1  1  1  1  1  1  1  1  1  1  1  1  1
    1  1  1  1  1  1  1  1  1  1  1  1  1  1  1  1  1  1  1  1
    1  1  1  1  1  1  1  1  1  1  1  1  1  1  1  1  1  1  1  1
    1  1  1  1  1  1  1  1  1  1  1  1  1  1  1  1  1  1  1  1
    1  1  1  1  1  1  1  1  1  1  1  1  1  1  1  1  1  1  1  1
    1  1  1  1  1  1  1  1  1  1  1  1  1  1  1  1  1  1  1  1
    0  1  1  1  1  1  1  1  1  1  1  1  1  1  1  1  1  1  1  1
    0  0  1  1  1  1  1  1  1  1  1  1  1  1  1  1  1  1  1  1
    0  0  0  1  1  1  1  1  1  1  1  1  1  1  1  1  1  1  1  1
    0  0  0  0  1  1  1  1  1  1  1  1  1  1  1  1  1  1  1  0
    0  0  0  0  1  1  1  1  1  1  1  1  1  1  1  1  1  1  1  0
    0  0  0  0  0  1  1  1  1  1  1  1  1  1  1  1  1  1  0  0
    0  0  0  0  0  1  1  1  1  1  1  1  1  1  1  1  1  0  0  0
    0  0  0  0  0  1  1  1  1  1  1  1  1  1  1  0  0  0  0  0
END GRIDDATA

