# File generated by Flopy version 3.3.4 on 02/13/2023 at 10:08:02.
BEGIN Options
END Options

BEGIN GRIDDATA
  iconvert  LAYERED
    CONSTANT  0
  ss  LAYERED
    OPEN/CLOSE  'sto_ss_0.dat'  FACTOR  1.0
END GRIDDATA

