# File generated by Flopy version 3.3.4 on 02/13/2023 at 10:08:02.
BEGIN Options
  LIST  freyberg6.lst
  NEWTON
END Options

BEGIN Packages
  ghb6  freyberg6.ghb
  wel6  freyberg6.wel
  oc6  freyberg6.oc
  sto6  freyberg6.sto
  ic6  freyberg6.ic
  dis6  freyberg6.dis
  npf6  freyberg6.npf  npf
  RCH6  freyberg6.rcha  rcha_0
END Packages

