# File generated by Flopy version 3.3.4 on 02/13/2023 at 10:08:02.
BEGIN options
  READASARRAYS
END options

BEGIN period  1
  recharge
    INTERNAL  FACTOR  1.0
    6.16896000E-05  6.16896000E-05  6.16896000E-05  6.16896000E-05  6.16896000E-05  6.16896000E-05  6.16896000E-05  6.16896000E-05  6.16896000E-05  6.16896000E-05  6.16896000E-05  6.16896000E-05  6.16896000E-05  6.16896000E-05  6.16896000E-05  6.16896000E-05  6.16896000E-05  6.16896000E-05  6.16896000E-05  6.16896000E-05
    6.16896000E-05  6.16896000E-05  6.16896000E-05  6.16896000E-05  6.16896000E-05  6.16896000E-05  6.16896000E-05  6.16896000E-05  6.16896000E-05  6.16896000E-05  6.16896000E-05  6.16896000E-05  6.16896000E-05  6.16896000E-05  6.16896000E-05  6.16896000E-05  6.16896000E-05  6.16896000E-05  6.16896000E-05  6.16896000E-05
    6.16896000E-05  6.16896000E-05  6.16896000E-05  6.16896000E-05  6.16896000E-05  6.16896000E-05  6.16896000E-05  6.16896000E-05  6.16896000E-05  6.16896000E-05  6.16896000E-05  6.16896000E-05  6.16896000E-05  6.16896000E-05  6.16896000E-05  6.16896000E-05  6.16896000E-05  6.16896000E-05  6.16896000E-05  6.16896000E-05
    6.16896000E-05  6.16896000E-05  6.16896000E-05  6.16896000E-05  6.16896000E-05  6.16896000E-05  6.16896000E-05  6.16896000E-05  6.16896000E-05  6.16896000E-05  6.16896000E-05  6.16896000E-05  6.16896000E-05  6.16896000E-05  6.16896000E-05  6.16896000E-05  6.16896000E-05  6.16896000E-05  6.16896000E-05  6.16896000E-05
    6.16896000E-05  6.16896000E-05  6.16896000E-05  6.16896000E-05  6.16896000E-05  6.16896000E-05  6.16896000E-05  6.16896000E-05  6.16896000E-05  6.16896000E-05  6.16896000E-05  6.16896000E-05  6.16896000E-05  6.16896000E-05  6.16896000E-05  6.16896000E-05  6.16896000E-05  6.16896000E-05  6.16896000E-05  6.16896000E-05
    6.16896000E-05  6.16896000E-05  6.16896000E-05  6.16896000E-05  6.16896000E-05  6.16896000E-05  6.16896000E-05  6.16896000E-05  6.16896000E-05  6.16896000E-05  6.16896000E-05  6.16896000E-05  6.16896000E-05  6.16896000E-05  6.16896000E-05  6.16896000E-05  6.16896000E-05  6.16896000E-05  6.16896000E-05  6.16896000E-05
    6.16896000E-05  6.16896000E-05  6.16896000E-05  6.16896000E-05  6.16896000E-05  6.16896000E-05  6.16896000E-05  6.16896000E-05  6.16896000E-05  6.16896000E-05  6.16896000E-05  6.16896000E-05  6.16896000E-05  6.16896000E-05  6.16896000E-05  6.16896000E-05  6.16896000E-05  6.16896000E-05  6.16896000E-05  6.16896000E-05
    6.16896000E-05  6.16896000E-05  6.16896000E-05  6.16896000E-05  6.16896000E-05  6.16896000E-05  6.16896000E-05  6.16896000E-05  6.16896000E-05  6.16896000E-05  6.16896000E-05  6.16896000E-05  6.16896000E-05  6.16896000E-05  6.16896000E-05  6.16896000E-05  6.16896000E-05  6.16896000E-05  6.16896000E-05  6.16896000E-05
    6.16896000E-05  6.16896000E-05  6.16896000E-05  6.16896000E-05  6.16896000E-05  6.16896000E-05  6.16896000E-05  6.16896000E-05  6.16896000E-05  6.16896000E-05  6.16896000E-05  6.16896000E-05  6.16896000E-05  6.16896000E-05  6.16896000E-05  6.16896000E-05  6.16896000E-05  6.16896000E-05  6.16896000E-05  6.16896000E-05
    6.16896000E-05  6.16896000E-05  6.16896000E-05  6.16896000E-05  6.16896000E-05  6.16896000E-05  6.16896000E-05  6.16896000E-05  6.16896000E-05  6.16896000E-05  6.16896000E-05  6.16896000E-05  6.16896000E-05  6.16896000E-05  6.16896000E-05  6.16896000E-05  6.16896000E-05  6.16896000E-05  6.16896000E-05  6.16896000E-05
    6.16896000E-05  6.16896000E-05  6.16896000E-05  6.16896000E-05  6.16896000E-05  6.16896000E-05  6.16896000E-05  6.16896000E-05  6.16896000E-05  6.16896000E-05  6.16896000E-05  6.16896000E-05  6.16896000E-05  6.16896000E-05  6.16896000E-05  6.16896000E-05  6.16896000E-05  6.16896000E-05  6.16896000E-05  6.16896000E-05
    6.16896000E-05  6.16896000E-05  6.16896000E-05  6.16896000E-05  6.16896000E-05  6.16896000E-05  6.16896000E-05  6.16896000E-05  6.16896000E-05  6.16896000E-05  6.16896000E-05  6.16896000E-05  6.16896000E-05  6.16896000E-05  6.16896000E-05  6.16896000E-05  6.16896000E-05  6.16896000E-05  6.16896000E-05  6.16896000E-05
    6.16896000E-05  6.16896000E-05  6.16896000E-05  6.16896000E-05  6.16896000E-05  6.16896000E-05  6.16896000E-05  6.16896000E-05  6.16896000E-05  6.16896000E-05  6.16896000E-05  6.16896000E-05  6.16896000E-05  6.16896000E-05  6.16896000E-05  6.16896000E-05  6.16896000E-05  6.16896000E-05  6.16896000E-05  6.16896000E-05
    6.16896000E-05  6.16896000E-05  6.16896000E-05  6.16896000E-05  6.16896000E-05  6.16896000E-05  6.16896000E-05  6.16896000E-05  6.16896000E-05  6.16896000E-05  6.16896000E-05  6.16896000E-05  6.16896000E-05  6.16896000E-05  6.16896000E-05  6.16896000E-05  6.16896000E-05  6.16896000E-05  6.16896000E-05  6.16896000E-05
    6.16896000E-05  6.16896000E-05  6.16896000E-05  6.16896000E-05  6.16896000E-05  6.16896000E-05  6.16896000E-05  6.16896000E-05  6.16896000E-05  6.16896000E-05  6.16896000E-05  6.16896000E-05  6.16896000E-05  6.16896000E-05  6.16896000E-05  6.16896000E-05  6.16896000E-05  6.16896000E-05  6.16896000E-05  6.16896000E-05
    6.16896000E-05  6.16896000E-05  6.16896000E-05  6.16896000E-05  6.16896000E-05  6.16896000E-05  6.16896000E-05  6.16896000E-05  6.16896000E-05  6.16896000E-05  6.16896000E-05  6.16896000E-05  6.16896000E-05  6.16896000E-05  6.16896000E-05  6.16896000E-05  6.16896000E-05  6.16896000E-05  6.16896000E-05  6.16896000E-05
    6.16896000E-05  6.16896000E-05  6.16896000E-05  6.16896000E-05  6.16896000E-05  6.16896000E-05  6.16896000E-05  6.16896000E-05  6.16896000E-05  6.16896000E-05  6.16896000E-05  6.16896000E-05  6.16896000E-05  6.16896000E-05  6.16896000E-05  6.16896000E-05  6.16896000E-05  6.16896000E-05  6.16896000E-05  6.16896000E-05
    6.16896000E-05  6.16896000E-05  6.16896000E-05  6.16896000E-05  6.16896000E-05  6.16896000E-05  6.16896000E-05  6.16896000E-05  6.16896000E-05  6.16896000E-05  6.16896000E-05  6.16896000E-05  6.16896000E-05  6.16896000E-05  6.16896000E-05  6.16896000E-05  6.16896000E-05  6.16896000E-05  6.16896000E-05  6.16896000E-05
    6.16896000E-05  6.16896000E-05  6.16896000E-05  6.16896000E-05  6.16896000E-05  6.16896000E-05  6.16896000E-05  6.16896000E-05  6.16896000E-05  6.16896000E-05  6.16896000E-05  6.16896000E-05  6.16896000E-05  6.16896000E-05  6.16896000E-05  6.16896000E-05  6.16896000E-05  6.16896000E-05  6.16896000E-05  6.16896000E-05
    6.16896000E-05  6.16896000E-05  6.16896000E-05  6.16896000E-05  6.16896000E-05  6.16896000E-05  6.16896000E-05  6.16896000E-05  6.16896000E-05  6.16896000E-05  6.16896000E-05  6.16896000E-05  6.16896000E-05  6.16896000E-05  6.16896000E-05  6.16896000E-05  6.16896000E-05  6.16896000E-05  6.16896000E-05  6.16896000E-05
    6.16896000E-05  6.16896000E-05  6.16896000E-05  6.16896000E-05  6.16896000E-05  6.16896000E-05  6.16896000E-05  6.16896000E-05  6.16896000E-05  6.16896000E-05  6.16896000E-05  6.16896000E-05  6.16896000E-05  6.16896000E-05  6.16896000E-05  6.16896000E-05  6.16896000E-05  6.16896000E-05  6.16896000E-05  6.16896000E-05
    6.16896000E-05  6.16896000E-05  6.16896000E-05  6.16896000E-05  6.16896000E-05  6.16896000E-05  6.16896000E-05  6.16896000E-05  6.16896000E-05  6.16896000E-05  6.16896000E-05  6.16896000E-05  6.16896000E-05  6.16896000E-05  6.16896000E-05  6.16896000E-05  6.16896000E-05  6.16896000E-05  6.16896000E-05  6.16896000E-05
    6.16896000E-05  6.16896000E-05  6.16896000E-05  6.16896000E-05  6.16896000E-05  6.16896000E-05  6.16896000E-05  6.16896000E-05  6.16896000E-05  6.16896000E-05  6.16896000E-05  6.16896000E-05  6.16896000E-05  6.16896000E-05  6.16896000E-05  6.16896000E-05  6.16896000E-05  6.16896000E-05  6.16896000E-05  6.16896000E-05
    6.16896000E-05  6.16896000E-05  6.16896000E-05  6.16896000E-05  6.16896000E-05  6.16896000E-05  6.16896000E-05  6.16896000E-05  6.16896000E-05  6.16896000E-05  6.16896000E-05  6.16896000E-05  6.16896000E-05  6.16896000E-05  6.16896000E-05  6.16896000E-05  6.16896000E-05  6.16896000E-05  6.16896000E-05  6.16896000E-05
    6.16896000E-05  6.16896000E-05  6.16896000E-05  6.16896000E-05  6.16896000E-05  6.16896000E-05  6.16896000E-05  6.16896000E-05  6.16896000E-05  6.16896000E-05  6.16896000E-05  6.16896000E-05  6.16896000E-05  6.16896000E-05  6.16896000E-05  6.16896000E-05  6.16896000E-05  6.16896000E-05  6.16896000E-05  6.16896000E-05
    6.16896000E-05  6.16896000E-05  6.16896000E-05  6.16896000E-05  6.16896000E-05  6.16896000E-05  6.16896000E-05  6.16896000E-05  6.16896000E-05  6.16896000E-05  6.16896000E-05  6.16896000E-05  6.16896000E-05  6.16896000E-05  6.16896000E-05  6.16896000E-05  6.16896000E-05  6.16896000E-05  6.16896000E-05  6.16896000E-05
    6.16896000E-05  6.16896000E-05  6.16896000E-05  6.16896000E-05  6.16896000E-05  6.16896000E-05  6.16896000E-05  6.16896000E-05  6.16896000E-05  6.16896000E-05  6.16896000E-05  6.16896000E-05  6.16896000E-05  6.16896000E-05  6.16896000E-05  6.16896000E-05  6.16896000E-05  6.16896000E-05  6.16896000E-05  6.16896000E-05
    6.16896000E-05  6.16896000E-05  6.16896000E-05  6.16896000E-05  6.16896000E-05  6.16896000E-05  6.16896000E-05  6.16896000E-05  6.16896000E-05  6.16896000E-05  6.16896000E-05  6.16896000E-05  6.16896000E-05  6.16896000E-05  6.16896000E-05  6.16896000E-05  6.16896000E-05  6.16896000E-05  6.16896000E-05  6.16896000E-05
    6.16896000E-05  6.16896000E-05  6.16896000E-05  6.16896000E-05  6.16896000E-05  6.16896000E-05  6.16896000E-05  6.16896000E-05  6.16896000E-05  6.16896000E-05  6.16896000E-05  6.16896000E-05  6.16896000E-05  6.16896000E-05  6.16896000E-05  6.16896000E-05  6.16896000E-05  6.16896000E-05  6.16896000E-05  6.16896000E-05
    6.16896000E-05  6.16896000E-05  6.16896000E-05  6.16896000E-05  6.16896000E-05  6.16896000E-05  6.16896000E-05  6.16896000E-05  6.16896000E-05  6.16896000E-05  6.16896000E-05  6.16896000E-05  6.16896000E-05  6.16896000E-05  6.16896000E-05  6.16896000E-05  6.16896000E-05  6.16896000E-05  6.16896000E-05  6.16896000E-05
    6.16896000E-05  6.16896000E-05  6.16896000E-05  6.16896000E-05  6.16896000E-05  6.16896000E-05  6.16896000E-05  6.16896000E-05  6.16896000E-05  6.16896000E-05  6.16896000E-05  6.16896000E-05  6.16896000E-05  6.16896000E-05  6.16896000E-05  6.16896000E-05  6.16896000E-05  6.16896000E-05  6.16896000E-05  6.16896000E-05
    6.16896000E-05  6.16896000E-05  6.16896000E-05  6.16896000E-05  6.16896000E-05  6.16896000E-05  6.16896000E-05  6.16896000E-05  6.16896000E-05  6.16896000E-05  6.16896000E-05  6.16896000E-05  6.16896000E-05  6.16896000E-05  6.16896000E-05  6.16896000E-05  6.16896000E-05  6.16896000E-05  6.16896000E-05  6.16896000E-05
    6.16896000E-05  6.16896000E-05  6.16896000E-05  6.16896000E-05  6.16896000E-05  6.16896000E-05  6.16896000E-05  6.16896000E-05  6.16896000E-05  6.16896000E-05  6.16896000E-05  6.16896000E-05  6.16896000E-05  6.16896000E-05  6.16896000E-05  6.16896000E-05  6.16896000E-05  6.16896000E-05  6.16896000E-05  6.16896000E-05
    6.16896000E-05  6.16896000E-05  6.16896000E-05  6.16896000E-05  6.16896000E-05  6.16896000E-05  6.16896000E-05  6.16896000E-05  6.16896000E-05  6.16896000E-05  6.16896000E-05  6.16896000E-05  6.16896000E-05  6.16896000E-05  6.16896000E-05  6.16896000E-05  6.16896000E-05  6.16896000E-05  6.16896000E-05  6.16896000E-05
    6.16896000E-05  6.16896000E-05  6.16896000E-05  6.16896000E-05  6.16896000E-05  6.16896000E-05  6.16896000E-05  6.16896000E-05  6.16896000E-05  6.16896000E-05  6.16896000E-05  6.16896000E-05  6.16896000E-05  6.16896000E-05  6.16896000E-05  6.16896000E-05  6.16896000E-05  6.16896000E-05  6.16896000E-05  6.16896000E-05
    6.16896000E-05  6.16896000E-05  6.16896000E-05  6.16896000E-05  6.16896000E-05  6.16896000E-05  6.16896000E-05  6.16896000E-05  6.16896000E-05  6.16896000E-05  6.16896000E-05  6.16896000E-05  6.16896000E-05  6.16896000E-05  6.16896000E-05  6.16896000E-05  6.16896000E-05  6.16896000E-05  6.16896000E-05  6.16896000E-05
    6.16896000E-05  6.16896000E-05  6.16896000E-05  6.16896000E-05  6.16896000E-05  6.16896000E-05  6.16896000E-05  6.16896000E-05  6.16896000E-05  6.16896000E-05  6.16896000E-05  6.16896000E-05  6.16896000E-05  6.16896000E-05  6.16896000E-05  6.16896000E-05  6.16896000E-05  6.16896000E-05  6.16896000E-05  6.16896000E-05
    6.16896000E-05  6.16896000E-05  6.16896000E-05  6.16896000E-05  6.16896000E-05  6.16896000E-05  6.16896000E-05  6.16896000E-05  6.16896000E-05  6.16896000E-05  6.16896000E-05  6.16896000E-05  6.16896000E-05  6.16896000E-05  6.16896000E-05  6.16896000E-05  6.16896000E-05  6.16896000E-05  6.16896000E-05  6.16896000E-05
    6.16896000E-05  6.16896000E-05  6.16896000E-05  6.16896000E-05  6.16896000E-05  6.16896000E-05  6.16896000E-05  6.16896000E-05  6.16896000E-05  6.16896000E-05  6.16896000E-05  6.16896000E-05  6.16896000E-05  6.16896000E-05  6.16896000E-05  6.16896000E-05  6.16896000E-05  6.16896000E-05  6.16896000E-05  6.16896000E-05
    6.16896000E-05  6.16896000E-05  6.16896000E-05  6.16896000E-05  6.16896000E-05  6.16896000E-05  6.16896000E-05  6.16896000E-05  6.16896000E-05  6.16896000E-05  6.16896000E-05  6.16896000E-05  6.16896000E-05  6.16896000E-05  6.16896000E-05  6.16896000E-05  6.16896000E-05  6.16896000E-05  6.16896000E-05  6.16896000E-05
END period  1

BEGIN period  2
  recharge
    INTERNAL  FACTOR  1.0
    9.54311085E-05  9.54311085E-05  9.54311085E-05  9.54311085E-05  9.54311085E-05  9.54311085E-05  9.54311085E-05  9.54311085E-05  9.54311085E-05  9.54311085E-05  9.54311085E-05  9.54311085E-05  9.54311085E-05  9.54311085E-05  9.54311085E-05  9.54311085E-05  9.54311085E-05  9.54311085E-05  9.54311085E-05  9.54311085E-05
    9.54311085E-05  9.54311085E-05  9.54311085E-05  9.54311085E-05  9.54311085E-05  9.54311085E-05  9.54311085E-05  9.54311085E-05  9.54311085E-05  9.54311085E-05  9.54311085E-05  9.54311085E-05  9.54311085E-05  9.54311085E-05  9.54311085E-05  9.54311085E-05  9.54311085E-05  9.54311085E-05  9.54311085E-05  9.54311085E-05
    9.54311085E-05  9.54311085E-05  9.54311085E-05  9.54311085E-05  9.54311085E-05  9.54311085E-05  9.54311085E-05  9.54311085E-05  9.54311085E-05  9.54311085E-05  9.54311085E-05  9.54311085E-05  9.54311085E-05  9.54311085E-05  9.54311085E-05  9.54311085E-05  9.54311085E-05  9.54311085E-05  9.54311085E-05  9.54311085E-05
    9.54311085E-05  9.54311085E-05  9.54311085E-05  9.54311085E-05  9.54311085E-05  9.54311085E-05  9.54311085E-05  9.54311085E-05  9.54311085E-05  9.54311085E-05  9.54311085E-05  9.54311085E-05  9.54311085E-05  9.54311085E-05  9.54311085E-05  9.54311085E-05  9.54311085E-05  9.54311085E-05  9.54311085E-05  9.54311085E-05
    9.54311085E-05  9.54311085E-05  9.54311085E-05  9.54311085E-05  9.54311085E-05  9.54311085E-05  9.54311085E-05  9.54311085E-05  9.54311085E-05  9.54311085E-05  9.54311085E-05  9.54311085E-05  9.54311085E-05  9.54311085E-05  9.54311085E-05  9.54311085E-05  9.54311085E-05  9.54311085E-05  9.54311085E-05  9.54311085E-05
    9.54311085E-05  9.54311085E-05  9.54311085E-05  9.54311085E-05  9.54311085E-05  9.54311085E-05  9.54311085E-05  9.54311085E-05  9.54311085E-05  9.54311085E-05  9.54311085E-05  9.54311085E-05  9.54311085E-05  9.54311085E-05  9.54311085E-05  9.54311085E-05  9.54311085E-05  9.54311085E-05  9.54311085E-05  9.54311085E-05
    9.54311085E-05  9.54311085E-05  9.54311085E-05  9.54311085E-05  9.54311085E-05  9.54311085E-05  9.54311085E-05  9.54311085E-05  9.54311085E-05  9.54311085E-05  9.54311085E-05  9.54311085E-05  9.54311085E-05  9.54311085E-05  9.54311085E-05  9.54311085E-05  9.54311085E-05  9.54311085E-05  9.54311085E-05  9.54311085E-05
    9.54311085E-05  9.54311085E-05  9.54311085E-05  9.54311085E-05  9.54311085E-05  9.54311085E-05  9.54311085E-05  9.54311085E-05  9.54311085E-05  9.54311085E-05  9.54311085E-05  9.54311085E-05  9.54311085E-05  9.54311085E-05  9.54311085E-05  9.54311085E-05  9.54311085E-05  9.54311085E-05  9.54311085E-05  9.54311085E-05
    9.54311085E-05  9.54311085E-05  9.54311085E-05  9.54311085E-05  9.54311085E-05  9.54311085E-05  9.54311085E-05  9.54311085E-05  9.54311085E-05  9.54311085E-05  9.54311085E-05  9.54311085E-05  9.54311085E-05  9.54311085E-05  9.54311085E-05  9.54311085E-05  9.54311085E-05  9.54311085E-05  9.54311085E-05  9.54311085E-05
    9.54311085E-05  9.54311085E-05  9.54311085E-05  9.54311085E-05  9.54311085E-05  9.54311085E-05  9.54311085E-05  9.54311085E-05  9.54311085E-05  9.54311085E-05  9.54311085E-05  9.54311085E-05  9.54311085E-05  9.54311085E-05  9.54311085E-05  9.54311085E-05  9.54311085E-05  9.54311085E-05  9.54311085E-05  9.54311085E-05
    9.54311085E-05  9.54311085E-05  9.54311085E-05  9.54311085E-05  9.54311085E-05  9.54311085E-05  9.54311085E-05  9.54311085E-05  9.54311085E-05  9.54311085E-05  9.54311085E-05  9.54311085E-05  9.54311085E-05  9.54311085E-05  9.54311085E-05  9.54311085E-05  9.54311085E-05  9.54311085E-05  9.54311085E-05  9.54311085E-05
    9.54311085E-05  9.54311085E-05  9.54311085E-05  9.54311085E-05  9.54311085E-05  9.54311085E-05  9.54311085E-05  9.54311085E-05  9.54311085E-05  9.54311085E-05  9.54311085E-05  9.54311085E-05  9.54311085E-05  9.54311085E-05  9.54311085E-05  9.54311085E-05  9.54311085E-05  9.54311085E-05  9.54311085E-05  9.54311085E-05
    9.54311085E-05  9.54311085E-05  9.54311085E-05  9.54311085E-05  9.54311085E-05  9.54311085E-05  9.54311085E-05  9.54311085E-05  9.54311085E-05  9.54311085E-05  9.54311085E-05  9.54311085E-05  9.54311085E-05  9.54311085E-05  9.54311085E-05  9.54311085E-05  9.54311085E-05  9.54311085E-05  9.54311085E-05  9.54311085E-05
    9.54311085E-05  9.54311085E-05  9.54311085E-05  9.54311085E-05  9.54311085E-05  9.54311085E-05  9.54311085E-05  9.54311085E-05  9.54311085E-05  9.54311085E-05  9.54311085E-05  9.54311085E-05  9.54311085E-05  9.54311085E-05  9.54311085E-05  9.54311085E-05  9.54311085E-05  9.54311085E-05  9.54311085E-05  9.54311085E-05
    9.54311085E-05  9.54311085E-05  9.54311085E-05  9.54311085E-05  9.54311085E-05  9.54311085E-05  9.54311085E-05  9.54311085E-05  9.54311085E-05  9.54311085E-05  9.54311085E-05  9.54311085E-05  9.54311085E-05  9.54311085E-05  9.54311085E-05  9.54311085E-05  9.54311085E-05  9.54311085E-05  9.54311085E-05  9.54311085E-05
    9.54311085E-05  9.54311085E-05  9.54311085E-05  9.54311085E-05  9.54311085E-05  9.54311085E-05  9.54311085E-05  9.54311085E-05  9.54311085E-05  9.54311085E-05  9.54311085E-05  9.54311085E-05  9.54311085E-05  9.54311085E-05  9.54311085E-05  9.54311085E-05  9.54311085E-05  9.54311085E-05  9.54311085E-05  9.54311085E-05
    9.54311085E-05  9.54311085E-05  9.54311085E-05  9.54311085E-05  9.54311085E-05  9.54311085E-05  9.54311085E-05  9.54311085E-05  9.54311085E-05  9.54311085E-05  9.54311085E-05  9.54311085E-05  9.54311085E-05  9.54311085E-05  9.54311085E-05  9.54311085E-05  9.54311085E-05  9.54311085E-05  9.54311085E-05  9.54311085E-05
    9.54311085E-05  9.54311085E-05  9.54311085E-05  9.54311085E-05  9.54311085E-05  9.54311085E-05  9.54311085E-05  9.54311085E-05  9.54311085E-05  9.54311085E-05  9.54311085E-05  9.54311085E-05  9.54311085E-05  9.54311085E-05  9.54311085E-05  9.54311085E-05  9.54311085E-05  9.54311085E-05  9.54311085E-05  9.54311085E-05
    9.54311085E-05  9.54311085E-05  9.54311085E-05  9.54311085E-05  9.54311085E-05  9.54311085E-05  9.54311085E-05  9.54311085E-05  9.54311085E-05  9.54311085E-05  9.54311085E-05  9.54311085E-05  9.54311085E-05  9.54311085E-05  9.54311085E-05  9.54311085E-05  9.54311085E-05  9.54311085E-05  9.54311085E-05  9.54311085E-05
    9.54311085E-05  9.54311085E-05  9.54311085E-05  9.54311085E-05  9.54311085E-05  9.54311085E-05  9.54311085E-05  9.54311085E-05  9.54311085E-05  9.54311085E-05  9.54311085E-05  9.54311085E-05  9.54311085E-05  9.54311085E-05  9.54311085E-05  9.54311085E-05  9.54311085E-05  9.54311085E-05  9.54311085E-05  9.54311085E-05
    9.54311085E-05  9.54311085E-05  9.54311085E-05  9.54311085E-05  9.54311085E-05  9.54311085E-05  9.54311085E-05  9.54311085E-05  9.54311085E-05  9.54311085E-05  9.54311085E-05  9.54311085E-05  9.54311085E-05  9.54311085E-05  9.54311085E-05  9.54311085E-05  9.54311085E-05  9.54311085E-05  9.54311085E-05  9.54311085E-05
    9.54311085E-05  9.54311085E-05  9.54311085E-05  9.54311085E-05  9.54311085E-05  9.54311085E-05  9.54311085E-05  9.54311085E-05  9.54311085E-05  9.54311085E-05  9.54311085E-05  9.54311085E-05  9.54311085E-05  9.54311085E-05  9.54311085E-05  9.54311085E-05  9.54311085E-05  9.54311085E-05  9.54311085E-05  9.54311085E-05
    9.54311085E-05  9.54311085E-05  9.54311085E-05  9.54311085E-05  9.54311085E-05  9.54311085E-05  9.54311085E-05  9.54311085E-05  9.54311085E-05  9.54311085E-05  9.54311085E-05  9.54311085E-05  9.54311085E-05  9.54311085E-05  9.54311085E-05  9.54311085E-05  9.54311085E-05  9.54311085E-05  9.54311085E-05  9.54311085E-05
    9.54311085E-05  9.54311085E-05  9.54311085E-05  9.54311085E-05  9.54311085E-05  9.54311085E-05  9.54311085E-05  9.54311085E-05  9.54311085E-05  9.54311085E-05  9.54311085E-05  9.54311085E-05  9.54311085E-05  9.54311085E-05  9.54311085E-05  9.54311085E-05  9.54311085E-05  9.54311085E-05  9.54311085E-05  9.54311085E-05
    9.54311085E-05  9.54311085E-05  9.54311085E-05  9.54311085E-05  9.54311085E-05  9.54311085E-05  9.54311085E-05  9.54311085E-05  9.54311085E-05  9.54311085E-05  9.54311085E-05  9.54311085E-05  9.54311085E-05  9.54311085E-05  9.54311085E-05  9.54311085E-05  9.54311085E-05  9.54311085E-05  9.54311085E-05  9.54311085E-05
    9.54311085E-05  9.54311085E-05  9.54311085E-05  9.54311085E-05  9.54311085E-05  9.54311085E-05  9.54311085E-05  9.54311085E-05  9.54311085E-05  9.54311085E-05  9.54311085E-05  9.54311085E-05  9.54311085E-05  9.54311085E-05  9.54311085E-05  9.54311085E-05  9.54311085E-05  9.54311085E-05  9.54311085E-05  9.54311085E-05
    9.54311085E-05  9.54311085E-05  9.54311085E-05  9.54311085E-05  9.54311085E-05  9.54311085E-05  9.54311085E-05  9.54311085E-05  9.54311085E-05  9.54311085E-05  9.54311085E-05  9.54311085E-05  9.54311085E-05  9.54311085E-05  9.54311085E-05  9.54311085E-05  9.54311085E-05  9.54311085E-05  9.54311085E-05  9.54311085E-05
    9.54311085E-05  9.54311085E-05  9.54311085E-05  9.54311085E-05  9.54311085E-05  9.54311085E-05  9.54311085E-05  9.54311085E-05  9.54311085E-05  9.54311085E-05  9.54311085E-05  9.54311085E-05  9.54311085E-05  9.54311085E-05  9.54311085E-05  9.54311085E-05  9.54311085E-05  9.54311085E-05  9.54311085E-05  9.54311085E-05
    9.54311085E-05  9.54311085E-05  9.54311085E-05  9.54311085E-05  9.54311085E-05  9.54311085E-05  9.54311085E-05  9.54311085E-05  9.54311085E-05  9.54311085E-05  9.54311085E-05  9.54311085E-05  9.54311085E-05  9.54311085E-05  9.54311085E-05  9.54311085E-05  9.54311085E-05  9.54311085E-05  9.54311085E-05  9.54311085E-05
    9.54311085E-05  9.54311085E-05  9.54311085E-05  9.54311085E-05  9.54311085E-05  9.54311085E-05  9.54311085E-05  9.54311085E-05  9.54311085E-05  9.54311085E-05  9.54311085E-05  9.54311085E-05  9.54311085E-05  9.54311085E-05  9.54311085E-05  9.54311085E-05  9.54311085E-05  9.54311085E-05  9.54311085E-05  9.54311085E-05
    9.54311085E-05  9.54311085E-05  9.54311085E-05  9.54311085E-05  9.54311085E-05  9.54311085E-05  9.54311085E-05  9.54311085E-05  9.54311085E-05  9.54311085E-05  9.54311085E-05  9.54311085E-05  9.54311085E-05  9.54311085E-05  9.54311085E-05  9.54311085E-05  9.54311085E-05  9.54311085E-05  9.54311085E-05  9.54311085E-05
    9.54311085E-05  9.54311085E-05  9.54311085E-05  9.54311085E-05  9.54311085E-05  9.54311085E-05  9.54311085E-05  9.54311085E-05  9.54311085E-05  9.54311085E-05  9.54311085E-05  9.54311085E-05  9.54311085E-05  9.54311085E-05  9.54311085E-05  9.54311085E-05  9.54311085E-05  9.54311085E-05  9.54311085E-05  9.54311085E-05
    9.54311085E-05  9.54311085E-05  9.54311085E-05  9.54311085E-05  9.54311085E-05  9.54311085E-05  9.54311085E-05  9.54311085E-05  9.54311085E-05  9.54311085E-05  9.54311085E-05  9.54311085E-05  9.54311085E-05  9.54311085E-05  9.54311085E-05  9.54311085E-05  9.54311085E-05  9.54311085E-05  9.54311085E-05  9.54311085E-05
    9.54311085E-05  9.54311085E-05  9.54311085E-05  9.54311085E-05  9.54311085E-05  9.54311085E-05  9.54311085E-05  9.54311085E-05  9.54311085E-05  9.54311085E-05  9.54311085E-05  9.54311085E-05  9.54311085E-05  9.54311085E-05  9.54311085E-05  9.54311085E-05  9.54311085E-05  9.54311085E-05  9.54311085E-05  9.54311085E-05
    9.54311085E-05  9.54311085E-05  9.54311085E-05  9.54311085E-05  9.54311085E-05  9.54311085E-05  9.54311085E-05  9.54311085E-05  9.54311085E-05  9.54311085E-05  9.54311085E-05  9.54311085E-05  9.54311085E-05  9.54311085E-05  9.54311085E-05  9.54311085E-05  9.54311085E-05  9.54311085E-05  9.54311085E-05  9.54311085E-05
    9.54311085E-05  9.54311085E-05  9.54311085E-05  9.54311085E-05  9.54311085E-05  9.54311085E-05  9.54311085E-05  9.54311085E-05  9.54311085E-05  9.54311085E-05  9.54311085E-05  9.54311085E-05  9.54311085E-05  9.54311085E-05  9.54311085E-05  9.54311085E-05  9.54311085E-05  9.54311085E-05  9.54311085E-05  9.54311085E-05
    9.54311085E-05  9.54311085E-05  9.54311085E-05  9.54311085E-05  9.54311085E-05  9.54311085E-05  9.54311085E-05  9.54311085E-05  9.54311085E-05  9.54311085E-05  9.54311085E-05  9.54311085E-05  9.54311085E-05  9.54311085E-05  9.54311085E-05  9.54311085E-05  9.54311085E-05  9.54311085E-05  9.54311085E-05  9.54311085E-05
    9.54311085E-05  9.54311085E-05  9.54311085E-05  9.54311085E-05  9.54311085E-05  9.54311085E-05  9.54311085E-05  9.54311085E-05  9.54311085E-05  9.54311085E-05  9.54311085E-05  9.54311085E-05  9.54311085E-05  9.54311085E-05  9.54311085E-05  9.54311085E-05  9.54311085E-05  9.54311085E-05  9.54311085E-05  9.54311085E-05
    9.54311085E-05  9.54311085E-05  9.54311085E-05  9.54311085E-05  9.54311085E-05  9.54311085E-05  9.54311085E-05  9.54311085E-05  9.54311085E-05  9.54311085E-05  9.54311085E-05  9.54311085E-05  9.54311085E-05  9.54311085E-05  9.54311085E-05  9.54311085E-05  9.54311085E-05  9.54311085E-05  9.54311085E-05  9.54311085E-05
    9.54311085E-05  9.54311085E-05  9.54311085E-05  9.54311085E-05  9.54311085E-05  9.54311085E-05  9.54311085E-05  9.54311085E-05  9.54311085E-05  9.54311085E-05  9.54311085E-05  9.54311085E-05  9.54311085E-05  9.54311085E-05  9.54311085E-05  9.54311085E-05  9.54311085E-05  9.54311085E-05  9.54311085E-05  9.54311085E-05
END period  2

BEGIN period  3
  recharge
    INTERNAL  FACTOR  1.0
    1.01775880E-04  1.01775880E-04  1.01775880E-04  1.01775880E-04  1.01775880E-04  1.01775880E-04  1.01775880E-04  1.01775880E-04  1.01775880E-04  1.01775880E-04  1.01775880E-04  1.01775880E-04  1.01775880E-04  1.01775880E-04  1.01775880E-04  1.01775880E-04  1.01775880E-04  1.01775880E-04  1.01775880E-04  1.01775880E-04
    1.01775880E-04  1.01775880E-04  1.01775880E-04  1.01775880E-04  1.01775880E-04  1.01775880E-04  1.01775880E-04  1.01775880E-04  1.01775880E-04  1.01775880E-04  1.01775880E-04  1.01775880E-04  1.01775880E-04  1.01775880E-04  1.01775880E-04  1.01775880E-04  1.01775880E-04  1.01775880E-04  1.01775880E-04  1.01775880E-04
    1.01775880E-04  1.01775880E-04  1.01775880E-04  1.01775880E-04  1.01775880E-04  1.01775880E-04  1.01775880E-04  1.01775880E-04  1.01775880E-04  1.01775880E-04  1.01775880E-04  1.01775880E-04  1.01775880E-04  1.01775880E-04  1.01775880E-04  1.01775880E-04  1.01775880E-04  1.01775880E-04  1.01775880E-04  1.01775880E-04
    1.01775880E-04  1.01775880E-04  1.01775880E-04  1.01775880E-04  1.01775880E-04  1.01775880E-04  1.01775880E-04  1.01775880E-04  1.01775880E-04  1.01775880E-04  1.01775880E-04  1.01775880E-04  1.01775880E-04  1.01775880E-04  1.01775880E-04  1.01775880E-04  1.01775880E-04  1.01775880E-04  1.01775880E-04  1.01775880E-04
    1.01775880E-04  1.01775880E-04  1.01775880E-04  1.01775880E-04  1.01775880E-04  1.01775880E-04  1.01775880E-04  1.01775880E-04  1.01775880E-04  1.01775880E-04  1.01775880E-04  1.01775880E-04  1.01775880E-04  1.01775880E-04  1.01775880E-04  1.01775880E-04  1.01775880E-04  1.01775880E-04  1.01775880E-04  1.01775880E-04
    1.01775880E-04  1.01775880E-04  1.01775880E-04  1.01775880E-04  1.01775880E-04  1.01775880E-04  1.01775880E-04  1.01775880E-04  1.01775880E-04  1.01775880E-04  1.01775880E-04  1.01775880E-04  1.01775880E-04  1.01775880E-04  1.01775880E-04  1.01775880E-04  1.01775880E-04  1.01775880E-04  1.01775880E-04  1.01775880E-04
    1.01775880E-04  1.01775880E-04  1.01775880E-04  1.01775880E-04  1.01775880E-04  1.01775880E-04  1.01775880E-04  1.01775880E-04  1.01775880E-04  1.01775880E-04  1.01775880E-04  1.01775880E-04  1.01775880E-04  1.01775880E-04  1.01775880E-04  1.01775880E-04  1.01775880E-04  1.01775880E-04  1.01775880E-04  1.01775880E-04
    1.01775880E-04  1.01775880E-04  1.01775880E-04  1.01775880E-04  1.01775880E-04  1.01775880E-04  1.01775880E-04  1.01775880E-04  1.01775880E-04  1.01775880E-04  1.01775880E-04  1.01775880E-04  1.01775880E-04  1.01775880E-04  1.01775880E-04  1.01775880E-04  1.01775880E-04  1.01775880E-04  1.01775880E-04  1.01775880E-04
    1.01775880E-04  1.01775880E-04  1.01775880E-04  1.01775880E-04  1.01775880E-04  1.01775880E-04  1.01775880E-04  1.01775880E-04  1.01775880E-04  1.01775880E-04  1.01775880E-04  1.01775880E-04  1.01775880E-04  1.01775880E-04  1.01775880E-04  1.01775880E-04  1.01775880E-04  1.01775880E-04  1.01775880E-04  1.01775880E-04
    1.01775880E-04  1.01775880E-04  1.01775880E-04  1.01775880E-04  1.01775880E-04  1.01775880E-04  1.01775880E-04  1.01775880E-04  1.01775880E-04  1.01775880E-04  1.01775880E-04  1.01775880E-04  1.01775880E-04  1.01775880E-04  1.01775880E-04  1.01775880E-04  1.01775880E-04  1.01775880E-04  1.01775880E-04  1.01775880E-04
    1.01775880E-04  1.01775880E-04  1.01775880E-04  1.01775880E-04  1.01775880E-04  1.01775880E-04  1.01775880E-04  1.01775880E-04  1.01775880E-04  1.01775880E-04  1.01775880E-04  1.01775880E-04  1.01775880E-04  1.01775880E-04  1.01775880E-04  1.01775880E-04  1.01775880E-04  1.01775880E-04  1.01775880E-04  1.01775880E-04