# File generated by Flopy version 3.3.4 on 12/19/2022 at 16:55:25.
BEGIN Options
  LENGTH_UNITS  meters
END Options

BEGIN Dimensions
  NLAY  3
  NROW  40
  NCOL  20
END Dimensions

BEGIN GRIDDATA
  delr
    CONSTANT     250.00000000
  delc
    CONSTANT     250.00000000
  top
    CONSTANT      30.00000000
  botm  LAYERED
    CONSTANT      20.00000000
    CONSTANT      10.00000000
    CONSTANT       0.00000000
  idomain  LAYERED
    INTERNAL  FACTOR  1  IPRN  5
      1  1  1  1  1  1  1  1  1  1  1  1  1  1  1  1  1  1  1  1
      1  1  1  1  1  1  1  1  1  1  1  1  1  1  1  1  1  1  1  1
      1  1  1  1  1  1  1  1  1  1  1  1  1  1  1  1  1  1  1  1
      1  1  1  1  1  1  1  1  1  1  1  1  1  1  1  1  1  1  1  1
      1  1  1  1  1  1  1  1  1  1  1  1  1  1  1  1  1  1  1  1
      1  1  1  1  1  1  1  1  1  1  1  1  1  1  1  1  1  1  1  1
      1  1  1  1  1  1  1  1  1  1  1  1  1  1  1  1  1  1  1  1
      1  1  1  1  1  1  1  1  1  1  1  1  1  1  1  1  1  1  1  1
      1  1  1  1  0  0  0  1  1  1  1  1  1  1  1  1  1  1  1  1
      1  1  1  1  0  0  0  0  1  1  1  1  1  1  1  1  1  1  1  1
      1  1  1  1  0  0  0  0  1  1  1  1  1  1  1  1  1  1  1  1
      1  1  1  1  0  0  0  0  1  1  1  1  1  1  1  1  1  1  1  1
      1  1  1  1  0  0  0  0  1  1  1  1  1  1  1  1  1  1  1  1
      1  1  1  1  0  0  0  0  1  1  1  1  1  1  1  1  1  1  1  1
      1  1  1  1  0  0  0  0  1  1  1  1  1  1  1  1  1  1  1  1
      1  1  1  1  0  0  0  0  1  1  1  1  1  1  1  1  1  1  1  1
      1  1  1  1  0  0  0  0  1  1  1  1  1  1  1  1  1  1  1  1
      1  1  1  1  0  0  0  0  1  1  1  1  1  1  1  1  1  1  1  1
      1  1  1  1  0  0  0  0  1  1  1  1  1  1  1  1  1  1  1  1
      1  1  1  1  0  0  0  0  1  1  1  1  1  1  1  1  1  1  1  1
      1  1  1  1  0  0  0  0  1  1  1  1  1  1  1  1  1  1  1  1
      1  1  1  1  0  0  1  1  1  1  1  1  1  1  1  1  1  1  1  1
      1  1  1  1  1  0  1  1  1  1  1  1  1  1  1  1  1  1  1  1
      1  1  1  1  1  1  1  1  1  1  1  1  1  1  1  1  1  1  1  1
      1  1  1  1  1  1  1  1  1  1  1  1  1  1  1  1  1  1  1  1
      1  1  1  1  1  1  1  1  1  1  1  1  1  1  1  1  1  1  1  1
      1  1  1  1  1  1  1  1  1  1  1  1  1  1  1  1  1  1  1  1
      1  1  1  1  1  1  1  1  1  1  1  1  1  1  1  1  1  1  1  1
      1  1  1  1  1  1  1  1  1  1  1  1  1  1  1  1  1  1  1  1
      1  1  1  1  1  1  1  1  1  1  1  1  1  1  1  1  1  1  1  1
      1  1  1  1  1  1  1  1  1  1  1  1  1  1  1  1  1  1  1  1
      1  1  1  1  1  1  1  1  1  1  1  1  1  1  1  1  1  1  1  1
      0  1  1  1  1  1  1  1  1  1  1  1  1  1  1  1  1  1  1  1
      0  0  1  1  1  1  1  1  1  1  1  1  1  1  1  1  1  1  1  1
      0  0  0  1  1  1  1  1  1  1  1  1  1  1  1  1  1  1  1  1
      0  0  0  0  1  1  1  1  1  1  1  1  1  1  1  1  1  1  1  0
      0  0  0  0  1  1  1  1  1  1  1  1  1  1  1  1  1  1  1  0
      0  0  0  0  0  1  1  1  1  1  1  1  1  1  1  1  1  1  0  0
      0  0  0  0  0  1  1  1  1  1  1  1  1  1  1  1  1  0  0  0
      0  0  0  0  0  1  1  1  1  1  1  1  1  1  1  0  0  0  0  0
    INTERNAL  FACTOR  1  IPRN  5
      1  1  1  1  1  1  1  1  1  1  1  1  1  1  1  1  1  1  1  1
      1  1  1  1  1  1  1  1  1  1  1  1  1  1  1  1  1  1  1  1
      1  1  1  1  1  1  1  1  1  1  1  1  1  1  1  1  1  1  1  1
      1  1  1  1  1  1  1  1  1  1  1  1  1  1  1  1  1  1  1  1
      1  1  1  1  1  1  1  1  1  1  1  1  1  1  1  1  1  1  1  1
      1  1  1  1  1  1  1  1  1  1  1  1  1  1  1  1  1  1  1  1
      1  1  1  1  1  1  1  1  1  1  1  1  1  1  1  1  1  1  1  1
      1  1  1  1  1  1  1  1  1  1  1  1  1  1  1  1  1  1  1  1
      1  1  1  1  0  0  0  1  1  1  1  1  1  1  1  1  1  1  1  1
      1  1  1  1  0  0  0  0  1  1  1  1  1  1  1  1  1  1  1  1
      1  1  1  1  0  0  0  0  1  1  1  1  1  1  1  1  1  1  1  1
      1  1  1  1  0  0  0  0  1  1  1  1  1  1  1  1  1  1  1  1
      1  1  1  1  0  0  0  0  1  1  1  1  1  1  1  1  1  1  1  1
      1  1  1  1  0  0  0  0  1  1  1  1  1  1  1  1  1  1  1  1
      1  1  1  1  0  0  0  0  1  1  1  1  1  1  1  1  1  1  1  1
      1  1  1  1  0  0  0  0  1  1  1  1  1  1  1  1  1  1  1  1
      1  1  1  1  0  0  0  0  1  1  1  1  1  1  1  1  1  1  1  1
      1  1  1  1  0  0  0  0  1  1  1  1  1  1  1  1  1  1  1  1
      1  1  1  1  0  0  0  0  1  1  1  1  1  1  1  1  1  1  1  1
      1  1  1  1  0  0  0  0  1  1  1  1  1  1  1  1  1  1  1  1
      1  1  1  1  0  0  0  0  1  1  1  1  1  1  1  1  1  1  1  1
      1  1  1  1  0  0  1  1  1  1  1  1  1  1  1  1  1  1  1  1
      1  1  1  1  1  0  1  1  1  1  1  1  1  1  1  1  1  1  1  1
      1  1  1  1  1  1  1  1  1  1  1  1  1  1  1  1  1  1  1  1
      1  1  1  1  1  1  1  1  1  1  1  1  1  1  1  1  1  1  1  1
      1  1  1  1  1  1  1  1  1  1  1  1  1  1  1  1  1  1  1  1
      1  1  1  1  1  1  1  1  1  1  1  1  1  1  1  1  1  1  1  1
      1  1  1  1  1  1  1  1  1  1  1  1  1  1  1  1  1  1  1  1
      1  1  1  1  1  1  1  1  1  1  1  1  1  1  1  1  1  1  1  1
      1  1  1  1  1  1  1  1  1  1  1  1  1  1  1  1  1  1  1  1
      1  1  1  1  1  1  1  1  1  1  1  1  1  1  1  1  1  1  1  1
      1  1  1  1  1  1  1  1  1  1  1  1  1  1  1  1  1  1  1  1
      0  1  1  1  1  1  1  1  1  1  1  1  1  1  1  1  1  1  1  1
      0  0  1  1  1  1  1  1  1  1  1  1  1  1  1  1  1  1  1  1
      0  0  0  1  1  1  1  1  1  1  1  1  1  1  1  1  1  1  1  1
      0  0  0  0  1  1  1  1  1  1  1  1  1  1  1  1  1  1  1  0
      0  0  0  0  1  1  1  1  1  1  1  1  1  1  1  1  1  1  1  0
      0  0  0  0  0  1  1  1  1  1  1  1  1  1  1  1  1  1  0  0
      0  0  0  0  0  1  1  1  1  1  1  1  1  1  1  1  1  0  0  0
      0  0  0  0  0  1  1  1  1  1  1  1  1  1  1  0  0  0  0  0
    INTERNAL  FACTOR  1  IPRN  5
      1  1  1  1  1  1  1  1  1  1  1  1  1  1  1  1  1  1  1  1
      1  1  1  1  1  1  1  1  1  1  1  1  1  1  1  1  1  1  1  1
      1  1  1  1  1  1  1  1  1  1  1  1  1  1  1  1  1  1  1  1
      1  1  1  1  1  1  1  1  1  1  1  1  1  1  1  1  1  1  1  1
      1  1  1  1  1  1  1  1  1  1  1  1  1  1  1  1  1  1  1  1
      1  1  1  1  1  1  1  1  1  1  1  1  1  1  1  1  1  1  1  1
      1  1  1  1  1  1  1  1  1  1  1  1  1  1  1  1  1  1  1  1
      1  1  1  1  1  1  1  1  1  1  1  1  1  1  1  1  1  1  1  1
      1  1  1  1  0  0  0  1  1  1  1  1  1  1  1  1  1  1  1  1
      1  1  1  1  0  0  0  0  1  1  1  1  1  1  1  1  1  1  1  1
      1  1  1  1  0  0  0  0  1  1  1  1  1  1  1  1  1  1  1  1
      1  1  1  1  0  0  0  0  1  1  1  1  1  1  1  1  1  1  1  1
      1  1  1  1  0  0  0  0  1  1  1  1  1  1  1  1  1  1  1  1
      1  1  1  1  0  0  0  0  1  1  1  1  1  1  1  1  1  1  1  1
      1  1  1  1  0  0  0  0  1  1  1  1  1  1  1  1  1  1  1  1
      1  1  1  1  0  0  0  0  1  1  1  1  1  1  1  1  1  1  1  1
      1  1  1  1  0  0  0  0  1  1  1  1  1  1  1  1  1  1  1  1
      1  1  1  1  0  0  0  0  1  1  1  1  1  1  1  1  1  1  1  1
      1  1  1  1  0  0  0  0  1  1  1  1  1  1  1  1  1  1  1  1
      1  1  1  1  0  0  0  0  1  1  1  1  1  1  1  1  1  1  1  1
      1  1  1  1  0  0  0  0  1  1  1  1  1  1  1  1  1  1  1  1
      1  1  1  1  0  0  1  1  1  1  1  1  1  1  1  1  1  1  1  1
      1  1  1  1  1  0  1  1  1  1  1  1  1  1  1  1  1  1  1  1
      1  1  1  1  1  1  1  1  1  1  1  1  1  1  1  1  1  1  1  1
      1  1  1  1  1  1  1  1  1  1  1  1  1  1  1  1  1  1  1  1
      1  1  1  1  1  1  1  1  1  1  1  1  1  1  1  1  1  1  1  1
      1  1  1  1  1  1  1  1  1  1  1  1  1  1  1  1  1  1  1  1
      1  1  1  1  1  1  1  1  1  1  1  1  1  1  1  1  1  1  1  1
      1  1  1  1  1  1  1  1  1  1  1  1  1  1  1  1  1  1  1  1
      1  1  1  1  1  1  1  1  1  1  1  1  1  1  1  1  1  1  1  1
      1  1  1  1  1  1  1  1  1  1  1  1  1  1  1  1  1  1  1  1
      1  1  1  1  1  1  1  1  1  1  1  1  1  1  1  1  1  1  1  1
      0  1  1  1  1  1  1  1  1  1  1  1  1  1  1  1  1  1  1  1
      0  0  1  1  1  1  1  1  1  1  1  1  1  1  1  1  1  1  1  1
      0  0  0  1  1  1  1  1  1  1  1  1  1  1  1  1  1  1  1  1
      0  0  0  0  1  1  1  1  1  1  1  1  1  1  1  1  1  1  1  0
      0  0  0  0  1  1  1  1  1  1  1  1  1  1  1  1  1  1  1  0
      0  0  0  0  0  1  1  1  1  1  1  1  1  1  1  1  1  1  0  0
      0  0  0  0  0  1  1  1  1  1  1  1  1  1  1  1  1  0  0  0
      0  0  0  0  0  1  1  1  1  1  1  1  1  1  1  0  0  0  0  0
END GRIDDATA

