# File generated by Flopy version 3.3.4 on 02/13/2023 at 10:08:02.
BEGIN Options
  PRINT_INPUT
  PRINT_FLOWS
  SAVE_FLOWS
END Options

BEGIN Dimensions
  MAXBOUND  6
END Dimensions

BEGIN PERIOD  1
  1 10 17    -157.50000000
  1 12 14    -157.50000000
  1 21 15    -157.50000000
  1 27 11    -157.50000000
  1 30 7    -157.50000000
  1 35 13    -157.50000000
END PERIOD  1

BEGIN PERIOD  2
  1 10 17     -56.44935000
  1 12 14     -56.44935000
  1 21 15     -56.44935000
  1 27 11     -56.44935000
  1 30 7     -56.44935000
  1 35 13     -56.44935000
END PERIOD  2

BEGIN PERIOD  3
  1 10 17     -62.63210700
  1 12 14     -62.63210700
  1 21 15     -62.63210700
  1 27 11     -62.63210700
  1 30 7     -62.63210700
  1 35 13     -62.63210700
END PERIOD  3

BEGIN PERIOD  4
  1 10 17     -96.43671900
  1 12 14     -96.43671900
  1 21 15     -96.43671900
  1 27 11     -96.43671900
  1 30 7     -96.43671900
  1 35 13     -96.43671900
END PERIOD  4

BEGIN PERIOD  5
  1 10 17    -148.02058800
  1 12 14    -148.02058800
  1 21 15    -148.02058800
  1 27 11    -148.02058800
  1 30 7    -148.02058800
  1 35 13    -148.02058800
END PERIOD  5

BEGIN PERIOD  6
  1 10 17    -202.36446900
  1 12 14    -202.36446900
  1 21 15    -202.36446900
  1 27 11    -202.36446900
  1 30 7    -202.36446900
  1 35 13    -202.36446900
END PERIOD  6

BEGIN PERIOD  7
  1 10 17    -243.64561500
  1 12 14    -243.64561500
  1 21 15    -243.64561500
  1 27 11    -243.64561500
  1 30 7    -243.64561500
  1 35 13    -243.64561500
END PERIOD  7

BEGIN PERIOD  8
  1 10 17    -262.44288000
  1 12 14    -262.44288000
  1 21 15    -262.44288000
  1 27 11    -262.44288000
  1 30 7    -262.44288000
  1 35 13    -262.44288000
END PERIOD  8

BEGIN PERIOD  9
  1 10 17    -259.84445400
  1 12 14    -259.84445400
  1 21 15    -259.84445400
  1 27 11    -259.84445400
  1 30 7    -259.84445400
  1 35 13    -259.84445400
END PERIOD  9

BEGIN PERIOD  10
  1 10 17    -246.24456300
  1 12 14    -246.24456300
  1 21 15    -246.24456300
  1 27 11    -246.24456300
  1 30 7    -246.24456300
  1 35 13    -246.24456300
END PERIOD  10

BEGIN PERIOD  11
  1 10 17    -206.80571700
  1 12 14    -206.80571700
  1 21 15    -206.80571700
  1 27 11    -206.80571700
  1 30 7    -206.80571700
  1 35 13    -206.80571700
END PERIOD  11

BEGIN PERIOD  12
  1 10 17    -153.01096200
  1 12 14    -153.01096200
  1 21 15    -153.01096200
  1 27 11    -153.01096200
  1 30 7    -153.01096200
  1 35 13    -153.01096200
END PERIOD  12

BEGIN PERIOD  13
  1 10 17    -100.52322300
  1 12 14    -100.52322300
  1 21 15    -100.52322300
  1 27 11    -100.52322300
  1 30 7    -100.52322300
  1 35 13    -100.52322300
END PERIOD  13

BEGIN PERIOD  14
  1 10 17     -64.62492300
  1 12 14     -64.62492300
  1 21 15     -64.62492300
  1 27 11     -64.62492300
  1 30 7     -64.62492300
  1 35 13     -64.62492300
END PERIOD  14

BEGIN PERIOD  15
  1 10 17     -55.76824260
  1 12 14     -55.76824260
  1 21 15     -55.76824260
  1 27 11     -55.76824260
  1 30 7     -55.76824260
  1 35 13     -55.76824260
END PERIOD  15

BEGIN PERIOD  16
  1 10 17     -76.53189600
  1 12 14     -76.53189600
  1 21 15     -76.53189600
  1 27 11     -76.53189600
  1 30 7     -76.53189600
  1 35 13     -76.53189600
END PERIOD  16

BEGIN PERIOD  17
  1 10 17    -120.87031500
  1 12 14    -120.87031500
  1 21 15    -120.87031500
  1 27 11    -120.87031500
  1 30 7    -120.87031500
  1 35 13    -120.87031500
END PERIOD  17

BEGIN PERIOD  18
  1 10 17    -175.87389600
  1 12 14    -175.87389600
  1 21 15    -175.87389600
  1 27 11    -175.87389600
  1 30 7    -175.87389600
  1 35 13    -175.87389600
END PERIOD  18

BEGIN PERIOD  19
  1 10 17    -225.52768800
  1 12 14    -225.52768800
  1 21 15    -225.52768800
  1 27 11    -225.52768800
  1 30 7    -225.52768800
  1 35 13    -225.52768800
END PERIOD  19

BEGIN PERIOD  20
  1 10 17    -255.37446000
  1 12 14    -255.37446000
  1 21 15    -255.37446000
  1 27 11    -255.37446000
  1 30 7    -255.37446000
  1 35 13    -255.37446000
END PERIOD  20

BEGIN PERIOD  21
  1 10 17    -256.72401000
  1 12 14    -256.72401000
  1 21 15    -256.72401000
  1 27 11    -256.72401000
  1 30 7    -256.72401000
  1 35 13    -256.72401000
END PERIOD  21

BEGIN PERIOD  22
  1 10 17    -229.18334400
  1 12 14    -229.18334400
  1 21 15    -229.18334400
  1 27 11    -229.18334400
  1 30 7    -229.18334400
  1 35 13    -229.18334400
END PERIOD  22

BEGIN PERIOD  23
  1 10 17    -180.77130900
  1 12 14    -180.77130900
  1 21 15    -180.77130900
  1 27 11    -180.77130900
  1 30 7    -180.77130900
  1 35 13    -180.77130900
END PERIOD  23

BEGIN PERIOD  24
  1 10 17    -125.58355200
  1 12 14    -125.58355200
  1 21 15    -125.58355200
  1 27 11    -125.58355200
  1 30 7    -125.58355200
  1 35 13    -125.58355200
END PERIOD  24

BEGIN PERIOD  25
  1 10 17     -79.68862350
  1 12 14     -79.68862350
  1 21 15     -79.68862350
  1 27 11     -79.68862350
  1 30 7     -79.68862350
  1 35 13     -79.68862350
END PERIOD  25

