# File generated by Flopy version 3.3.4 on 08/29/2022 at 19:44:52.
BEGIN options
END options

BEGIN dimensions
  MAXBOUND  10
END dimensions

BEGIN period  1
  1 40 6      39.50000000      
  1 40 7      39.50000000      
  1 40 8      39.50000000      
  1 40 9      39.50000000     
  1 40 10      39.50000000      
  1 40 11      39.50000000      
  1 40 12      39.50000000   
  1 40 13      39.50000000   
  1 40 14      39.50000000   
  1 40 15      39.50000000  
END period  1

