# File generated by Flopy version 3.3.4 on 02/13/2023 at 10:08:02.
BEGIN Options
  PRINT_INPUT
  PRINT_FLOWS
  SAVE_FLOWS
END Options

BEGIN Dimensions
  MAXBOUND  10
END Dimensions

BEGIN PERIOD  1
  1 40 6      33.50000000      70.00000000
  1 40 7      33.50000000      70.00000000
  1 40 8      33.50000000      70.00000000
  1 40 9      33.50000000      70.00000000
  1 40 10      33.50000000      70.00000000
  1 40 11      33.50000000      70.00000000
  1 40 12      33.50000000      70.00000000
  1 40 13      33.50000000      70.00000000
  1 40 14      33.50000000      70.00000000
  1 40 15      33.50000000      70.00000000
END PERIOD  1

