
begin options

end options

#begin performance_measure pm1 type direct
#1 1 1 20 10 1.0 
#end performance_measure
#from MF6-ADJ.INP file - format is sp,ts,l,r,c,obsval,weight,name - all one-based!
begin performance_measure pm1 type residual
25  1  1 11 4   1.0  116.3621  TRGW_1_4_11
25  1  1 17 4   1.0  115.4733  TRGW_1_4_17
25  1  1 10 5   1.0  116.2005  TRGW_1_5_10
25  1  1 3  11  1.0  113.3018  TRGW_1_11_3
25  1  1 12 15  1.0  105.9692  TRGW_1_15_12
25  1  1 17 17  1.0  103.222   TRGW_1_17_17
25  1  1 12 23  1.0  92.71598  TRGW_1_23_12
25  1  1 17 24  1.0  91.60094  TRGW_1_24_17
25  1  1 6  26  1.0  87.15189  TRGW_1_26_6
25  1  1 8  28  1.0  82.66749  TRGW_1_28_8
25  1  1 17 31  1.0  76.70748  TRGW_1_31_17
25  1  1 9  35  1.0  62.00289  TRGW_1_35_9
25  1  1 12 36  1.0  57.70029  TRGW_1_36_12
25  1  1 9  40  1.0  37.15386  TRGW_1_40_9
25  1  1 12 40  1.0  37.3195   TRGW_1_40_12
25  1  1 14 40  1.0  37.99822  TRGW_1_40_14
end performance_measure
