# File generated by Flopy version 3.9.2 on 05/08/2025 at 09:08:33.
BEGIN options
  CONTINUE
  MEMORY_PRINT_OPTION  all
END options

BEGIN timing
  TDIS6  xdbox.tdis
END timing

BEGIN models
  gwf6  xdbox.nam  xdbox
END models

BEGIN exchanges
END exchanges

BEGIN solutiongroup  1
  ims6  xdbox.ims  xdbox
END solutiongroup  1

