# File generated by Flopy version 3.9.2 on 05/08/2025 at 09:08:33.
BEGIN options
  SAVE_FLOWS
  NEWTON
END options

BEGIN packages
  DIS6  xdbox.dis  dis
  IC6  xdbox.ic  ic
  STO6  xdbox.sto  sto
  CHD6  xdbox.chd  chd_0
  WEL6  xdbox.wel  wel_0
  OC6  xdbox.oc  oc
  NPF6  xdbox.npf  npf
END packages

