# File generated by Flopy version 3.9.2 on 05/08/2025 at 09:08:33.
BEGIN options
END options

BEGIN griddata
  iconvert
    CONSTANT  0
  ss
    CONSTANT  1.00000000E-05
  sy
    CONSTANT       0.15000000
END griddata

BEGIN period  1
  TRANSIENT
END period  1

