# File generated by Flopy version 3.9.2 on 05/08/2025 at 09:08:33.
BEGIN options
  COMPLEXITY  complex
END options

BEGIN nonlinear
  OUTER_DVCLOSE  1.00000000E-08
  OUTER_MAXIMUM  1000
END nonlinear

BEGIN linear
  INNER_MAXIMUM  1000
  INNER_DVCLOSE  1.00000000E-08
  LINEAR_ACCELERATION  bicgstab
END linear

