# File generated by Flopy version 3.9.2 on 05/08/2025 at 09:08:33.
BEGIN options
END options

BEGIN griddata
  icelltype
    CONSTANT  1
  k
    CONSTANT      10.00000000
  k33
    CONSTANT      10.00000000
END griddata

