# File generated by Flopy version 3.8.0.dev0 on 07/05/2024 at 09:13:31.
BEGIN Options
  AUXILIARY  iface  condfact  cellgrp
  PRINT_INPUT
  PRINT_FLOWS
END Options

BEGIN Dimensions
  MAXBOUND  43
END Dimensions

BEGIN PERIOD  1
  5 52 164 1.19141810E+03 1.61135350E+02 6.00000000E+00 1.61135350E+02 6.00000000E+00
  5 52 163 1.19191810E+03 3.15520270E+01 6.00000000E+00 3.15520270E+01 6.00000000E+00
  5 219 153 1.89150340E+03 1.96103960E+02 6.00000000E+00 1.96103960E+02 7.00000000E+00
  5 220 153 1.92669220E+03 1.57712800E+02 6.00000000E+00 1.57712800E+02 7.00000000E+00
  5 220 152 1.96609340E+03 2.38460510E+02 6.00000000E+00 2.38460510E+02 7.00000000E+00
  5 221 152 2.00216130E+03 1.24195930E+02 6.00000000E+00 1.24195930E+02 7.00000000E+00
  5 221 151 2.04116070E+03 2.67937300E+02 6.00000000E+00 2.67937300E+02 7.00000000E+00
  5 221 150 2.09373630E+03 2.60701230E+02 6.00000000E+00 2.60701230E+02 7.00000000E+00
  5 222 150 2.12103720E+03 1.38050080E+01 6.00000000E+00 1.38050080E+01 7.00000000E+00
  5 222 149 2.14790700E+03 2.56366560E+02 6.00000000E+00 2.56366560E+02 7.00000000E+00
  5 222 148 2.20027150E+03 2.70149890E+02 6.00000000E+00 2.70149890E+02 7.00000000E+00
  5 222 147 2.24856960E+03 2.15479520E+02 6.00000000E+00 2.15479520E+02 7.00000000E+00
  5 172 113 1.72019920E+03 1.16240290E+01 6.00000000E+00 1.16240290E+02 1.00000000E+00
  5 172 112 1.72479950E+03 5.09090280E+00 6.00000000E+00 5.09090280E+01 1.00000000E+00
  5 173 112 1.73333920E+03 2.59377440E+01 6.00000000E+00 2.59377440E+02 1.00000000E+00
  5 174 112 1.74893480E+03 3.07276970E+01 6.00000000E+00 3.07276970E+02 1.00000000E+00
  5 174 111 1.75770010E+03 1.12073440E+00 6.00000000E+00 1.12073440E+01 1.00000000E+00
  5 175 111 1.76795740E+03 3.61483590E+01 6.00000000E+00 3.61483590E+02 1.00000000E+00
  5 176 111 1.77876740E+03 3.12931180E+00 6.00000000E+00 3.12931180E+01 1.00000000E+00
  5 176 110 1.78031430E+03 2.49132030E+00 6.00000000E+00 2.49132030E+01 1.00000000E+00
  5 192 128 1.62345370E+03 1.64966830E+01 6.00000000E+00 1.64966830E+02 2.00000000E+00
  5 191 128 1.62641700E+03 3.42594400E+00 6.00000000E+00 3.42594400E+01 2.00000000E+00
  5 191 127 1.62823300E+03 8.78316840E+00 6.00000000E+00 8.78316840E+01 2.00000000E+00
  5 192 127 1.63207830E+03 1.70697930E+01 6.00000000E+00 1.70697930E+02 2.00000000E+00
  5 192 126 1.63630860E+03 1.13712950E+01 6.00000000E+00 1.13712950E+02 2.00000000E+00
  5 203 144 1.69833090E+03 9.49006600E+00 6.00000000E+00 9.49006600E+01 3.00000000E+00
  5 203 143 1.73126320E+03 2.80242870E+01 6.00000000E+00 2.80242870E+02 3.00000000E+00
  5 203 142 1.76723980E+03 1.29579330E+01 6.00000000E+00 1.29579330E+02 3.00000000E+00
  5 204 142 1.79101500E+03 1.41252690E+01 6.00000000E+00 1.41252690E+02 3.00000000E+00
  5 204 141 1.82740590E+03 2.73288430E+01 6.00000000E+00 2.73288430E+02 3.00000000E+00
  5 204 140 1.86637090E+03 1.70575760E+01 6.00000000E+00 1.70575760E+02 3.00000000E+00
  5 205 140 1.88467250E+03 3.79045780E+00 6.00000000E+00 3.79045780E+01 3.00000000E+00
  5 232 123 1.67925000E+03 1.64754250E+01 6.00000000E+00 1.64754250E+02 4.00000000E+00
  5 191 104 1.90786770E+03 4.13007700E+00 6.00000000E+00 4.13007700E+01 5.00000000E+00
  5 190 104 1.92632630E+03 2.24546700E+01 6.00000000E+00 2.24546700E+02 5.00000000E+00
  5 190 105 1.96115190E+03 2.77021860E+01 6.00000000E+00 2.77021860E+02 5.00000000E+00
  5 189 105 1.98142930E+03 1.50181810E+00 6.00000000E+00 1.50181810E+01 5.00000000E+00
  5 189 106 2.00658220E+03 3.47242610E+01 6.00000000E+00 3.47242610E+02 5.00000000E+00
  5 188 106 2.03088560E+03 2.78089940E-01 6.00000000E+00 2.78089940E+00 5.00000000E+00
  5 188 107 2.05425320E+03 3.33766260E+01 6.00000000E+00 3.33766260E+02 5.00000000E+00
  5 188 108 2.09529060E+03 2.57267870E+01 6.00000000E+00 2.57267870E+02 5.00000000E+00
  5 187 108 2.11410520E+03 1.37048760E+00 6.00000000E+00 1.37048760E+01 5.00000000E+00
  5 187 109 2.12002840E+03 7.16026840E+00 6.00000000E+00 7.16026840E+01 5.00000000E+00
END PERIOD  1

