# File generated by Flopy version 3.8.0.dev0 on 07/05/2024 at 09:13:31.
BEGIN Options
  BUDGET  FILEOUT  sp_mf6.cbc
  HEAD  FILEOUT  sp_mf6.hds
END Options

BEGIN PERIOD  1
  SAVE  budget  all
  SAVE  head  all
  PRINT  budget  all
END PERIOD  1

