# File generated by Flopy version 3.8.0.dev0 on 07/05/2024 at 09:13:36.
BEGIN options
  TIME_CONVERSION   86400.00000000
END options

BEGIN dimensions
  NREACHES  998
END dimensions

BEGIN packagedata
  1  5 276 106     250.00000000       5.00000000       0.00707674    1477.00000000       1.00000000       0.50120000  0.02  1       0.00000000  0
  2  5 277 106     250.00000000       5.00000000       0.00707674    1476.00000000       1.00000000       1.10880000  0.02  2       1.00000000  0
  3  5 278 106     250.00000000       5.00000000       0.00707674    1474.00000000       1.00000000       0.69807998  0.02  2       1.00000000  0
  4  5 278 107     250.00000000       5.00000000       0.00707674    1473.00000000       1.00000000       0.41047998  0.02  2       1.00000000  0
  5  5 279 107     250.00000000       5.00000000       0.00707674    1472.00000000       1.00000000       1.10880000  0.02  2       1.00000000  0
  6  5 280 107     250.00000000       5.00000000       0.00707674    1470.00000000       1.00000000       0.79832002  0.02  2       1.00000000  0
  7  5 280 108     250.00000000       5.00000000       0.00707674    1469.00000000       1.00000000       0.31016001  0.02  2       1.00000000  0
  8  5 281 108     250.00000000       5.00000000       0.00707674    1468.00000000       1.00000000       1.20480000  0.02  2       1.00000000  0
  9  5 282 108     250.00000000       5.00000000       0.00707674    1467.00000000       1.00000000       0.31936001  0.02  2       1.00000000  0
  10  5 282 109     250.00000000       5.00000000       0.00707674    1465.00000000       1.00000000       1.05680000  0.02  2       1.00000000  0
  11  5 283 109     250.00000000       5.00000000       0.00707674    1464.00000000       1.00000000       0.39800000  0.02  2       1.00000000  0
  12  5 283 110     250.00000000       5.00000000       0.00707674    1463.00000000       1.00000000       0.97840000  0.02  2       1.00000000  0
  13  5 284 110     250.00000000       5.00000000       0.00707674    1462.00000000       1.00000000       0.47663999  0.02  2       1.00000000  0
  14  5 284 111     250.00000000       5.00000000       0.00707674    1460.00000000       1.00000000       1.15360000  0.02  2       1.00000000  0
  15  5 284 112     250.00000000       5.00000000       0.00707674    1459.00000000       1.00000000       0.41856001  0.02  2       1.00000000  0
  16  5 285 112     250.00000000       5.00000000       0.00707674    1458.00000000       1.00000000       0.63960000  0.02  2       1.00000000  0
  17  5 285 113     250.00000000       5.00000000       0.00707674    1456.00000000       1.00000000       1.03920000  0.02  2       1.00000000  0
  18  5 285 114     250.00000000       5.00000000       0.00707674    1455.00000000       1.00000000       0.61847998  0.02  2       1.00000000  0
  19  5 284 114     250.00000000       5.00000000       0.00707674    1454.00000000       1.00000000       0.41232002  0.02  2       1.00000000  0
  20  5 284 115     250.00000000       5.00000000       0.00707674    1453.00000000       1.00000000       1.02800000  0.02  2       1.00000000  0
  21  5 284 116     250.00000000       5.00000000       0.00707674    1452.00000000       1.00000000       0.27760000  0.02  2       1.00000000  0
  22  5 285 116     250.00000000       5.00000000       0.00707674    1451.00000000       1.00000000       0.74840000  0.02  2       1.00000000  0
  23  5 285 117     250.00000000       5.00000000       0.00707674    1449.00000000       1.00000000       1.02640000  0.02  2       1.00000000  0
  24  5 285 118     250.00000000       5.00000000       0.00707674    1447.00000000       1.00000000       1.02560000  0.02  2       1.00000000  0
  25  5 286 118     250.00000000       5.00000000       0.00707674    1446.00000000       1.00000000       0.39360000  0.02  2       1.00000000  0
  26  5 286 119     250.00000000       5.00000000       0.00707674    1445.00000000       1.00000000       0.86800000  0.02  2       1.00000000  0
  27  5 287 119     250.00000000       5.00000000       0.00707674    1443.00000000       1.00000000       0.78336001  0.02  2       1.00000000  0
  28  5 287 120     250.00000000       5.00000000       0.00707674    1442.00000000       1.00000000       0.46743999  0.02  2       1.00000000  0
  29  5 288 120     250.00000000       5.00000000       0.00707674    1441.00000000       1.00000000       0.53616001  0.02  2       1.00000000  0
  30  5 111 62     250.00000000       1.50000000       0.00566309    1429.00000000       1.00000000       2.44453337  0.02  1       0.00000000  0
  31  5 111 63     250.00000000       1.50000000       0.00566309    1429.00000000       1.00000000       4.82400000  0.02  2       1.00000000  0
  32  5 112 63     250.00000000       1.50000000       0.00566309    1427.00000000       1.00000000       4.52533333  0.02  2       1.00000000  0
  33  5 112 64     250.00000000       1.50000000       0.00566309    1426.00000000       1.00000000       4.98400000  0.02  2       1.00000000  0
  34  5 113 64     250.00000000       1.50000000       0.00566309    1425.00000000       1.00000000       4.36533333  0.02  2       1.00000000  0
  35  5 113 65     250.00000000       1.50000000       0.00566309    1424.00000000       1.00000000       5.14400000  0.02  2       1.00000000  0
  36  5 114 65     250.00000000       1.50000000       0.00566309    1423.00000000       1.00000000       4.20533333  0.02  2       1.00000000  0
  37  5 114 66     250.00000000       1.50000000       0.00566309    1422.00000000       1.00000000       5.30400000  0.02  2       1.00000000  0
  38  5 115 66     250.00000000       1.50000000       0.00566309    1421.00000000       1.00000000       4.04533333  0.02  2       1.00000000  0
  39  5 115 67     250.00000000       1.50000000       0.00566309    1419.00000000       1.00000000       5.46400000  0.02  2       1.00000000  0
  40  5 116 67     250.00000000       1.50000000       0.00566309    1419.00000000       1.00000000       0.53280001  0.02  2       1.00000000  0
  41  5 288 120     250.00000000       5.00000000       0.00532718    1441.00000000       1.00000000       0.55887998  0.02  2       1.00000000  0
  42  5 288 121     250.00000000       5.00000000       0.00532718    1440.00000000       1.00000000       0.25368000  0.02  2       1.00000000  0
  43  5 289 121     250.00000000       5.00000000       0.00532718    1439.00000000       1.00000000       1.15280000  0.02  2       1.00000000  0
  44  5 289 122     250.00000000       5.00000000       0.00532718    1438.00000000       1.00000000       0.27008000  0.02  2       1.00000000  0
  45  5 290 122     250.00000000       5.00000000       0.00532718    1437.00000000       1.00000000       1.12640000  0.02  2       1.00000000  0
  46  5 290 123     250.00000000       5.00000000       0.00532718    1436.00000000       1.00000000       0.32983999  0.02  2       1.00000000  0
  47  5 291 123     250.00000000       5.00000000       0.00532718    1435.00000000       1.00000000       0.99360000  0.02  2       1.00000000  0
  48  5 291 124     250.00000000       5.00000000       0.00532718    1435.00000000       1.00000000       0.38768000  0.02  2       1.00000000  0
  49  5 292 124     250.00000000       5.00000000       0.00532718    1434.00000000       1.00000000       1.00640000  0.02  2       1.00000000  0
  50  5 293 124     250.00000000       5.00000000       0.00532718    1432.00000000       1.00000000       1.08080000  0.02  2       1.00000000  0
  51  5 294 124     250.00000000       5.00000000       0.00532718    1431.00000000       1.00000000       0.84320000  0.02  2       1.00000000  0
  52  5 294 125     250.00000000       5.00000000       0.00532718    1430.00000000       1.00000000       0.35728000  0.02  2       1.00000000  0
  53  5 295 125     250.00000000       5.00000000       0.00532718    1429.00000000       1.00000000       0.94320000  0.02  2       1.00000000  0
  54  5 116 67     250.00000000       1.50000000       0.00574237    1418.00000000       1.00000000       2.98933333  0.02  2       1.00000000  0
  55  5 116 68     250.00000000       1.50000000       0.00574237    1417.00000000       1.00000000       7.49066667  0.02  2       1.00000000  0
  56  5 117 68     250.00000000       1.50000000       0.00574237    1416.00000000       1.00000000       0.84693335  0.02  2       1.00000000  0
  57  5 117 69     250.00000000       1.50000000       0.00574237    1415.00000000       1.00000000       8.33866667  0.02  2       1.00000000  0
  58  5 117 70     250.00000000       1.50000000       0.00574237    1414.00000000       1.00000000       1.91653337  0.02  2       1.00000000  0
  59  5 118 70     250.00000000       1.50000000       0.00574237    1413.00000000       1.00000000       6.42133333  0.02  2       1.00000000  0
  60  5 118 71     250.00000000       1.50000000       0.00574237    1412.00000000       1.00000000       4.68000000  0.02  2       1.00000000  0
  61  5 119 71     250.00000000       1.50000000       0.00574237    1411.00000000       1.00000000       3.65866667  0.02  2       1.00000000  0
  62  5 119 72     250.00000000       1.50000000       0.00574237    1410.00000000       1.00000000       3.72533333  0.02  2       1.00000000  0
  63  4 353 191     250.00000000       3.00000000       0.00404915    1391.00000000       1.00000000       0.53386666  0.02  1       0.00000000  0
  64  4 352 191     250.00000000       3.00000000       0.00404915    1390.00000000       1.00000000       1.68933333  0.02  2       1.00000000  0
  65  4 351 191     250.00000000       3.00000000       0.00404915    1389.00000000       1.00000000       0.09021334  0.02  2       1.00000000  0
  66  4 351 190     250.00000000       3.00000000       0.00404915    1389.00000000       1.00000000       1.60000000  0.02  2       1.00000000  0
  67  4 350 190     250.00000000       3.00000000       0.00404915    1388.00000000       1.00000000       1.68933333  0.02  2       1.00000000  0
  68  4 349 190     250.00000000       3.00000000       0.00404915    1386.00000000       1.00000000       1.69333333  0.02  2       1.00000000  0
  69  4 348 190     250.00000000       3.00000000       0.00404915    1385.00000000       1.00000000       1.70133333  0.02  2       1.00000000  0
  70  4 347 190     250.00000000       3.00000000       0.00404915    1384.00000000       1.00000000       1.70133333  0.02  2       1.00000000  0
  71  4 346 190     250.00000000       3.00000000       0.00404915    1383.00000000       1.00000000       0.73586670  0.02  2       1.00000000  0
  72  4 346 189     250.00000000       3.00000000       0.00404915    1382.00000000       1.00000000       0.96493335  0.02  2       1.00000000  0
  73  4 345 189     250.00000000       3.00000000       0.00404915    1381.00000000       1.00000000       1.70133333  0.02  2       1.00000000  0
  74  4 344 189     250.00000000       3.00000000       0.00404915    1380.00000000       1.00000000       1.68533333  0.02  2       1.00000000  0
  75  4 343 189     250.00000000       3.00000000       0.00404915    1379.00000000       1.00000000       1.68133333  0.02  2       1.00000000  0
  76  4 342 189     250.00000000       3.00000000       0.00404915    1378.00000000       1.00000000       1.64000000  0.02  2       1.00000000  0
  77  4 342 190     250.00000000       3.00000000       0.00404915    1377.00000000       1.00000000       0.04129333  0.02  2       1.00000000  0
  78  4 341 190     250.00000000       3.00000000       0.00404915    1377.00000000       1.00000000       0.06052000  0.02  2       1.00000000  0
  79  4 323 169     250.00000000       3.00000000       0.00418535    1371.00000000       1.00000000       0.43186666  0.02  1       0.00000000  0
  80  4 323 170     250.00000000       3.00000000       0.00418535    1370.00000000       1.00000000       1.71466667  0.02  2       1.00000000  0
  81  4 323 171     250.00000000       3.00000000       0.00418535    1369.00000000       1.00000000       1.29373332  0.02  2       1.00000000  0
  82  4 322 171     250.00000000       3.00000000       0.00418535    1368.00000000       1.00000000       0.42119999  0.02  2       1.00000000  0
  83  4 322 172     250.00000000       3.00000000       0.00418535    1367.00000000       1.00000000       1.74666667  0.02  2       1.00000000  0
  84  4 322 173     250.00000000       3.00000000       0.00418535    1366.00000000       1.00000000       1.91466667  0.02  2       1.00000000  0
  85  4 322 174     250.00000000       3.00000000       0.00418535    1365.00000000       1.00000000       0.27706667  0.02  2       1.00000000  0
  86  4 321 174     250.00000000       3.00000000       0.00418535    1365.00000000       1.00000000       1.63733333  0.02  2       1.00000000  0
  87  4 321 175     250.00000000       3.00000000       0.00418535    1363.00000000       1.00000000       1.67333333  0.02  2       1.00000000  0
  88  4 320 175     250.00000000       3.00000000       0.00418535    1363.00000000       1.00000000       0.27040000  0.02  2       1.00000000  0
  89  4 320 176     250.00000000       3.00000000       0.00418535    1362.00000000       1.00000000       1.94266667  0.02  2       1.00000000  0
  90  4 320 177     250.00000000       3.00000000       0.00418535    1361.00000000       1.00000000       1.02800000  0.02  2       1.00000000  0
  91  4 319 177     250.00000000       3.00000000       0.00418535    1360.00000000       1.00000000       1.00786670  0.02  2       1.00000000  0
  92  4 319 178     250.00000000       3.00000000       0.00418535    1359.00000000       1.00000000       1.43466667  0.02  2       1.00000000  0
  93  4 318 178     250.00000000       3.00000000       0.00418535    1358.00000000       1.00000000       1.01346663  0.02  2       1.00000000  0
  94  4 318 179     250.00000000       3.00000000       0.00418535    1357.00000000       1.00000000       1.55600000  0.02  2       1.00000000  0
  95  4 317 179     250.00000000       3.00000000       0.00418535    1356.00000000       1.00000000       0.51466667  0.02  2       1.00000000  0
  96  4 317 180     250.00000000       3.00000000       0.00418535    1356.00000000       1.00000000       1.36000000  0.02  2       1.00000000  0
  97  5 143 71     250.00000000       1.00000000       0.00690191    1440.00000000       1.00000000       0.56520001  0.02  1       0.00000000  0
  98  5 142 71     250.00000000       1.00000000       0.00690191    1439.00000000       1.00000000       5.04400000  0.02  2       1.00000000  0
  99  5 141 71     250.00000000       1.00000000       0.00690191    1437.00000000       1.00000000       5.04800000  0.02  2       1.00000000  0
  100  5 140 71     250.00000000       1.00000000       0.00690191    1435.00000000       1.00000000       5.21200000  0.02  2       1.00000000  0
  101  5 139 71     250.00000000       1.00000000       0.00690191    1433.00000000       1.00000000       3.93919995  0.02  2       1.00000000  0
  102  5 139 72     250.00000000       1.00000000       0.00690191    1431.00000000       1.00000000       4.42800000  0.02  2       1.00000000  0
  103  5 138 72     250.00000000       1.00000000       0.00690191    1430.00000000       1.00000000       0.99800000  0.02  2       1.00000000  0
  104  5 138 73     250.00000000       1.00000000       0.00690191    1428.00000000       1.00000000       6.07600000  0.02  2       1.00000000  0
  105  5 137 73     250.00000000       1.00000000       0.00690191    1426.00000000       1.00000000       3.76039990  0.02  2       1.00000000  0
  106  5 137 74     250.00000000       1.00000000       0.00690191    1425.00000000       1.00000000       1.69319995  0.02  2       1.00000000  0
  107  5 136 74     250.00000000       1.00000000       0.00690191    1424.00000000       1.00000000       5.66800000  0.02  2       1.00000000  0
  108  5 135 74     250.00000000       1.00000000       0.00690191    1422.00000000       1.00000000       3.73519995  0.02  2       1.00000000  0
  109  5 135 75     250.00000000       1.00000000       0.00690191    1420.00000000       1.00000000       1.85600000  0.02  2       1.00000000  0
  110  5 134 75     250.00000000       1.00000000       0.00690191    1419.00000000       1.00000000       5.10800000  0.02  2       1.00000000  0
  111  5 133 75     250.00000000       1.00000000       0.00690191    1417.00000000       1.00000000       5.04800000  0.02  2       1.00000000  0
  112  5 132 75     250.00000000       1.00000000       0.00690191    1415.00000000       1.00000000       5.12800000  0.02  2       1.00000000  0
  113  5 131 75     250.00000000       1.00000000       0.00690191    1413.00000000       1.00000000       4.30400000  0.02  2       1.00000000  0
  114  1 178 202     250.00000000       1.00000000       0.01357007    1279.00000000       1.00000000       4.12800000  0.02  1       0.00000000  0
  115  1 178 203     250.00000000       1.00000000       0.01357007    1277.00000000       1.00000000      11.00400000  0.02  2       1.00000000  0
  116  1 165 197     250.00000000       1.00000000       0.01110442    1274.00000000       1.00000000       5.21600000  0.02  1       0.00000000  0
  117  1 165 198     250.00000000       1.00000000       0.01110442    1272.00000000       1.00000000       7.79200000  0.02  2       1.00000000  0
  118  1 164 198     250.00000000       1.00000000       0.01110442    1271.00000000       1.00000000       2.55360010  0.02  2       1.00000000  0
  119  2 137 191     250.00000000       1.00000000       0.01719695    1251.00000000       1.00000000       0.15567999  0.02  1       0.00000000  0
  120  2 136 191     250.00000000       1.00000000       0.01719695    1250.00000000       1.00000000       0.38379999  0.02  2       1.00000000  0
  121  2 136 192     250.00000000       1.00000000       0.01719695    1246.00000000       1.00000000       1.05119995  0.02  2       1.00000000  0
  122  2 136 193     250.00000000       1.00000000       0.01719695    1242.00000000       1.00000000       0.83559998  0.02  2       1.00000000  0
  123  2 135 193     250.00000000       1.00000000       0.01719695    1239.00000000       1.00000000       0.72479999  0.02  2       1.00000000  0
  124  2 135 194     250.00000000       1.00000000       0.01719695    1237.00000000       1.00000000       0.39964001  0.02  2       1.00000000  0
  125  2 134 194     250.00000000       1.00000000       0.01719695    1233.00000000       1.00000000       1.30640002  0.02  2       1.00000000  0
  126  2 133 194     250.00000000       1.00000000       0.01719695    1230.00000000       1.00000000       0.12888000  0.02  2       1.00000000  0
  127  2 133 195     250.00000000       1.00000000       0.01719695    1227.00000000       1.00000000       1.09280005  0.02  2       1.00000000  0
  128  2 132 195     250.00000000       1.00000000       0.01719695    1223.00000000       1.00000000       0.70320001  0.02  2       1.00000000  0
  129  1 157 196     250.00000000       1.00000000       0.01623929    1280.00000000       1.00000000       1.74319995  0.02  1       0.00000000  0
  130  1 156 196     250.00000000       1.00000000       0.01623929    1278.00000000       1.00000000       6.31600000  0.02  2       1.00000000  0
  131  2 164 198     250.00000000       1.00000000       0.01113433    1271.00000000       1.00000000       0.03743200  0.02  2       1.00000000  0
  132  2 164 199     250.00000000       1.00000000       0.01113433    1269.00000000       1.00000000       1.03480005  0.02  2       1.00000000  0
  133  2 164 200     250.00000000       1.00000000       0.01113433    1266.00000000       1.00000000       1.03400000  0.02  2       1.00000000  0
  134  2 164 201     250.00000000       1.00000000       0.01113433    1264.00000000       1.00000000       0.73400000  0.02  2       1.00000000  0
  135  2 163 201     250.00000000       1.00000000       0.01113433    1262.00000000       1.00000000       0.45839999  0.02  2       1.00000000  0
  136  2 163 202     250.00000000       1.00000000       0.01113433    1260.00000000       1.00000000       1.07800000  0.02  2       1.00000000  0
  137  2 163 203     250.00000000       1.00000000       0.01113433    1257.00000000       1.00000000       1.01240002  0.02  2       1.00000000  0
  138  2 163 204     250.00000000       1.00000000       0.01113433    1254.00000000       1.00000000       1.00400000  0.02  2       1.00000000  0
  139  2 163 205     250.00000000       1.00000000       0.01113433    1251.00000000       1.00000000       1.03840002  0.02  2       1.00000000  0
  140  2 163 206     250.00000000       1.00000000       0.01113433    1250.00000000       1.00000000       0.27900000  0.02  2       1.00000000  0
  141  2 162 206     250.00000000       1.00000000       0.01113433    1248.00000000       1.00000000       0.90159998  0.02  2       1.00000000  0
  142  2 162 207     250.00000000       1.00000000       0.01113433    1245.00000000       1.00000000       1.04480005  0.02  2       1.00000000  0
  143  2 162 208     250.00000000       1.00000000       0.01113433    1242.00000000       1.00000000       1.01600000  0.02  2       1.00000000  0
  144  2 162 209     250.00000000       1.00000000       0.01113433    1241.00000000       1.00000000       0.05128000  0.02  2       1.00000000  0
  145  2 178 203     250.00000000       1.00000000       0.01357007    1275.00000000       1.00000000       0.13092000  0.02  2       1.00000000  0
  146  2 178 204     250.00000000       1.00000000       0.01357007    1274.00000000       1.00000000       2.41800000  0.02  2       1.00000000  0
  147  2 177 204     250.00000000       1.00000000       0.01357007    1272.00000000       1.00000000       3.33960010  0.02  2       1.00000000  0
  148  2 177 205     250.00000000       1.00000000       0.01357007    1269.00000000       1.00000000       5.61200000  0.02  2       1.00000000  0
  149  2 177 206     250.00000000       1.00000000       0.01357007    1266.00000000       1.00000000       2.72400000  0.02  2       1.00000000  0
  150  2 176 206     250.00000000       1.00000000       0.01357007    1263.00000000       1.00000000       5.08800000  0.02  2       1.00000000  0
  151  2 176 207     250.00000000       1.00000000       0.01357007    1260.00000000       1.00000000       5.06800000  0.02  2       1.00000000  0
  152  2 176 208     250.00000000       1.00000000       0.01357007    1256.00000000       1.00000000       5.39600000  0.02  2       1.00000000  0
  153  2 176 209     250.00000000       1.00000000       0.01357007    1253.00000000       1.00000000       5.49200000  0.02  2       1.00000000  0
  154  2 176 210     250.00000000       1.00000000       0.01357007    1251.00000000       1.00000000       1.13000000  0.02  2       1.00000000  0
  155  2 175 210     250.00000000       1.00000000       0.01357007    1249.00000000       1.00000000       4.66800000  0.02  2       1.00000000  0
  156  2 175 211     250.00000000       1.00000000       0.01357007    1245.00000000       1.00000000       5.20400000  0.02  2       1.00000000  0
  157  2 175 212     250.00000000       1.00000000       0.01357007    1243.00000000       1.00000000       0.07356000  0.02  2       1.00000000  0
  158  1 148 193     250.00000000       1.00000000       0.01406268    1270.00000000       1.00000000       5.94400000  0.02  1       0.00000000  0
  159  1 147 193     250.00000000       1.00000000       0.01406268    1268.00000000       1.00000000       2.65919995  0.02  2       1.00000000  0
  160  1 147 194     250.00000000       1.00000000       0.01406268    1266.00000000       1.00000000      12.03200000  0.02  2       1.00000000  0
  161  4 142 208     250.00000000       1.00000000       0.01372440    1234.00000000       1.00000000       1.32919995  0.02  1       0.00000000  0
  162  4 142 207     250.00000000       1.00000000       0.01372440    1233.00000000       1.00000000       1.38359998  0.02  2       1.00000000  0
  163  4 143 207     250.00000000       1.00000000       0.01372440    1231.00000000       1.00000000       5.17600000  0.02  2       1.00000000  0
  164  4 143 206     250.00000000       1.00000000       0.01372440    1229.00000000       1.00000000       0.09484000  0.02  2       1.00000000  0
  165  2 132 195     250.00000000       1.00000000       0.01719695    1221.00000000       1.00000000       0.25584000  0.02  2       1.00000000  0
  166  2 132 196     250.00000000       1.00000000       0.01719695    1220.00000000       1.00000000       0.33435999  0.02  2       1.00000000  0
  167  2 131 196     250.00000000       1.00000000       0.01719695    1217.00000000       1.00000000       1.20800000  0.02  2       1.00000000  0
  168  2 130 196     250.00000000       1.00000000       0.01719695    1214.00000000       1.00000000       0.04312000  0.02  2       1.00000000  0
  169  5 131 75     250.00000000       1.00000000       0.00421290    1412.00000000       1.00000000       0.28712000  0.02  2       1.00000000  0
  170  5 131 76     250.00000000       1.00000000       0.00421290    1412.00000000       1.00000000       0.78959998  0.02  2       1.00000000  0
  171  5 130 76     250.00000000       1.00000000       0.00421290    1411.00000000       1.00000000       5.72800000  0.02  2       1.00000000  0
  172  5 129 76     250.00000000       1.00000000       0.00421290    1410.00000000       1.00000000       3.27000000  0.02  2       1.00000000  0
  173  5 129 77     250.00000000       1.00000000       0.00421290    1409.00000000       1.00000000       2.76680005  0.02  2       1.00000000  0
  174  5 128 77     250.00000000       1.00000000       0.00421290    1408.00000000       1.00000000       5.41600000  0.02  2       1.00000000  0
  175  5 128 78     250.00000000       1.00000000       0.00421290    1407.00000000       1.00000000       1.32600000  0.02  2       1.00000000  0
  176  5 127 78     250.00000000       1.00000000       0.00421290    1406.00000000       1.00000000       5.35600000  0.02  2       1.00000000  0
  177  5 127 79     250.00000000       1.00000000       0.00421290    1405.00000000       1.00000000       2.12200000  0.02  2       1.00000000  0
  178  5 126 79     250.00000000       1.00000000       0.00421290    1405.00000000       1.00000000       4.64000000  0.02  2       1.00000000  0
  179  5 126 80     250.00000000       1.00000000       0.00421290    1404.00000000       1.00000000       2.88280005  0.02  2       1.00000000  0
  180  5 125 80     250.00000000       1.00000000       0.00421290    1403.00000000       1.00000000       3.71239990  0.02  2       1.00000000  0
  181  5 125 81     250.00000000       1.00000000       0.00421290    1402.00000000       1.00000000       4.05600000  0.02  2       1.00000000  0
  182  5 124 81     250.00000000       1.00000000       0.00421290    1401.00000000       1.00000000       2.35239990  0.02  2       1.00000000  0
  183  5 124 82     250.00000000       1.00000000       0.00421290    1400.00000000       1.00000000       5.78400000  0.02  2       1.00000000  0
  184  5 123 82     250.00000000       1.00000000       0.00421290    1399.00000000       1.00000000       0.63800000  0.02  2       1.00000000  0
  185  5 123 83     250.00000000       1.00000000       0.00421290    1398.00000000       1.00000000       6.32800000  0.02  2       1.00000000  0
  186  5 123 84     250.00000000       1.00000000       0.00421290    1397.00000000       1.00000000       1.17159998  0.02  2       1.00000000  0
  187  5 122 84     250.00000000       1.00000000       0.00421290    1396.00000000       1.00000000       5.88800000  0.02  2       1.00000000  0
  188  5 121 84     250.00000000       1.00000000       0.00421290    1396.00000000       1.00000000       1.16159998  0.02  2       1.00000000  0
  189  4 341 190     250.00000000       3.00000000       0.00270957    1377.00000000       1.00000000       1.63200000  0.02  2       1.00000000  0
  190  4 340 190     250.00000000       3.00000000       0.00270957    1376.00000000       1.00000000       1.69333333  0.02  2       1.00000000  0
  191  4 339 190     250.00000000       3.00000000       0.00270957    1375.00000000       1.00000000       1.70800000  0.02  2       1.00000000  0
  192  4 338 190     250.00000000       3.00000000       0.00270957    1374.00000000       1.00000000       1.73733333  0.02  2       1.00000000  0
  193  4 337 190     250.00000000       3.00000000       0.00270957    1374.00000000       1.00000000       0.51719999  0.02  2       1.00000000  0
  194  4 337 189     250.00000000       3.00000000       0.00270957    1373.00000000       1.00000000       1.23853337  0.02  2       1.00000000  0
  195  4 336 189     250.00000000       3.00000000       0.00270957    1372.00000000       1.00000000       1.95200000  0.02  2       1.00000000  0
  196  4 335 189     250.00000000       3.00000000       0.00270957    1372.00000000       1.00000000       0.49946667  0.02  2       1.00000000  0
  197  4 335 188     250.00000000       3.00000000       0.00270957    1371.00000000       1.00000000       1.45333333  0.02  2       1.00000000  0
  198  4 334 188     250.00000000       3.00000000       0.00270957    1371.00000000       1.00000000       1.74666667  0.02  2       1.00000000  0
  199  4 334 187     250.00000000       3.00000000       0.00270957    1370.00000000       1.00000000       0.20560000  0.02  2       1.00000000  0
  200  4 333 187     250.00000000       3.00000000       0.00270957    1369.00000000       1.00000000       2.08266667  0.02  2       1.00000000  0
  201  4 332 187     250.00000000       3.00000000       0.00270957    1369.00000000       1.00000000       0.50746667  0.02  2       1.00000000  0
  202  4 332 186     250.00000000       3.00000000       0.00270957    1368.00000000       1.00000000       1.62666667  0.02  2       1.00000000  0