# File generated by Flopy version 3.6.0.dev0 on 04/03/2024 at 15:25:15.
BEGIN options
  BOUNDNAMES
  SAVE_FLOWS
  BUDGET  FILEOUT  ex-gwf-sagehen.sfr.bud
  MOVER
  TIME_CONVERSION   86400.00000000
END options

BEGIN dimensions
  NREACHES  213
END dimensions

BEGIN packagedata
    OPEN/CLOSE  'ex-gwf-sagehen.sfr_packagedata.txt'
END packagedata

BEGIN connectiondata
    OPEN/CLOSE  'ex-gwf-sagehen.sfr_connectiondata.txt'
END connectiondata

