# File generated by Flopy version 3.6.0.dev0 on 04/03/2024 at 15:25:14.
BEGIN options
  SAVE_FLOWS
  NEWTON
END options

BEGIN packages
  dis6  ex-gwf-sagehen.dis  dis
  ic6  ex-gwf-sagehen.ic  ic
  npf6  ex-gwf-sagehen.npf  npf
  sto6  ex-gwf-sagehen.sto  sto
  oc6  ex-gwf-sagehen.oc  oc
  chd6  ex-gwf-sagehen.chd  chd-1
  drn6  ex-gwf-sagehen.drn  drn-1
  sfr6  ex-gwf-sagehen.sfr  sfr-1
  uzf6  ex-gwf-sagehen.uzf  uzf-1
  mvr6  ex-gwf-sagehen.mvr  mvr-1
END packages

