# File generated by Flopy version 3.6.0.dev0 on 04/03/2024 at 15:25:15.
BEGIN options
END options

BEGIN griddata
  iconvert
    OPEN/CLOSE  'ex-gwf-sagehen.sto_iconvert.txt'  FACTOR  1
  ss
    OPEN/CLOSE  'ex-gwf-sagehen.sto_ss.txt'  FACTOR  1.0
  sy
    OPEN/CLOSE  'ex-gwf-sagehen.sto_sy.txt'  FACTOR  1.0
END griddata

BEGIN period  1
  STEADY-STATE
END period  1

BEGIN period  2
  TRANSIENT
END period  2

