# File generated by Flopy version 3.6.0.dev0 on 04/03/2024 at 15:25:15.
BEGIN options
  BUDGET  FILEOUT  ex-gwf-sagehen.bud
  HEAD  FILEOUT  ex-gwf-sagehen.hds
  HEAD  PRINT_FORMAT  COLUMNS  10  WIDTH  15  DIGITS  6  general
END options

BEGIN period  1
  SAVE  head  last
  SAVE  budget  last
  PRINT  head  last
  PRINT  budget  last
END period  1

