# File generated by Flopy version 3.6.0.dev0 on 04/03/2024 at 15:25:15.
BEGIN griddata
  strt
    OPEN/CLOSE  'ex-gwf-sagehen.ic_strt.txt'  FACTOR  1.0
END griddata

