# File generated by Flopy version 3.6.0.dev0 on 04/03/2024 at 15:25:15.
BEGIN options
  ALTERNATIVE_CELL_AVERAGING  amt-hmk
END options

BEGIN griddata
  icelltype
    OPEN/CLOSE  'ex-gwf-sagehen.npf_icelltype.txt'  FACTOR  1
  k
    OPEN/CLOSE  'ex-gwf-sagehen.npf_k.txt'  FACTOR  1.0
  k33
    OPEN/CLOSE  'ex-gwf-sagehen.npf_k33.txt'  FACTOR  1.0
END griddata

