# File generated by Flopy version 3.6.0.dev0 on 04/03/2024 at 15:25:15.
BEGIN options
END options

BEGIN dimensions
  MAXBOUND  3
END dimensions

BEGIN period  1
    OPEN/CLOSE  'ex-gwf-sagehen.chd_stress_period_data_1.txt'
END period  1

