# File generated by Flopy version 3.6.0.dev0 on 04/03/2024 at 15:25:15.
BEGIN options
END options

BEGIN dimensions
  NLAY  1
  NROW  73
  NCOL  81
END dimensions

BEGIN griddata
  delr
    OPEN/CLOSE  'ex-gwf-sagehen.dis_delr.txt'  FACTOR  1.0
  delc
    OPEN/CLOSE  'ex-gwf-sagehen.dis_delc.txt'  FACTOR  1.0
  top
    OPEN/CLOSE  'ex-gwf-sagehen.dis_top.txt'  FACTOR  1.0
  botm
    OPEN/CLOSE  'ex-gwf-sagehen.dis_botm.txt'  FACTOR  1.0
  idomain
    OPEN/CLOSE  'ex-gwf-sagehen.dis_idomain.txt'  FACTOR  1
END griddata

