# File generated by Flopy version 3.6.0.dev0 on 04/03/2024 at 15:25:15.
BEGIN options
  auxiliary  ddrn
  AUXDEPTHNAME  ddrn
  SAVE_FLOWS
  MOVER
END options

BEGIN dimensions
  MAXBOUND  3178
END dimensions

BEGIN period  1
    OPEN/CLOSE  'ex-gwf-sagehen.drn_stress_period_data_1.txt'
END period  1

