# File generated by Flopy version 3.6.0.dev0 on 04/03/2024 at 15:25:15.
BEGIN options
  BUDGET  FILEOUT  ex-gwf-sagehen.mvr.bud
END options

BEGIN dimensions
  MAXMVR  10000
  MAXPACKAGES  3
END dimensions

BEGIN packages
    OPEN/CLOSE  'ex-gwf-sagehen.mvr_packages.txt'
END packages

BEGIN period  1
    OPEN/CLOSE  'ex-gwf-sagehen.mvr_perioddata_1.txt'
END period  1

