# File generated by Flopy version 3.6.0.dev0 on 04/03/2024 at 15:25:14.
BEGIN options
  CONTINUE
  MEMORY_PRINT_OPTION  all
END options

BEGIN timing
  TDIS6  ex-gwf-sagehen.tdis
END timing

BEGIN models
  gwf6  ex-gwf-sagehen.nam  ex-gwf-sagehen
END models

BEGIN exchanges
END exchanges

BEGIN solutiongroup  1
  ims6  ex-gwf-sagehen.ims  ex-gwf-sagehen
END solutiongroup  1

