# File generated by Flopy version 3.3.5 on 04/18/2023 at 14:30:53.
BEGIN options
  DIGITS  10
  PRINT_INPUT
END options

BEGIN continuous  FILEOUT  heads.csv
  arrobs_head_k:0_i:2_j:15  head  1 3 16
  arrobs_head_k:0_i:2_j:9  head  1 3 10
  arrobs_head_k:0_i:3_j:8  head  1 4 9
  arrobs_head_k:0_i:9_j:1  head  1 10 2
  arrobs_head_k:0_i:13_j:10  head  1 14 11
  arrobs_head_k:0_i:15_j:16  head  1 16 17
  arrobs_head_k:0_i:21_j:10  head  1 22 11
  arrobs_head_k:0_i:22_j:15  head  1 23 16
  arrobs_head_k:0_i:24_j:4  head  1 25 5
  arrobs_head_k:0_i:26_j:6  head  1 27 7
  arrobs_head_k:0_i:29_j:15  head  1 30 16
  arrobs_head_k:0_i:33_j:7  head  1 34 8
  arrobs_head_k:0_i:34_j:10  head  1 35 11
END continuous  FILEOUT  heads.csv

