# File generated by Flopy version 3.3.5 on 02/03/2023 at 10:35:18.
BEGIN Options
  PRINT_INPUT
  PRINT_FLOWS
  SAVE_FLOWS
END Options

BEGIN Dimensions
  MAXBOUND  10
END Dimensions

BEGIN PERIOD  1
    OPEN/CLOSE  'freyberg6.ghb_stress_period_data_1.txt'
END PERIOD  1

