# File generated by Flopy version 3.3.5 on 02/02/2023 at 16:08:08.
BEGIN Options
  SAVE_FLOWS
END Options

BEGIN GRIDDATA
  icelltype  LAYERED
    OPEN/CLOSE  'freyberg6.npf_icelltype_layer1.txt'  FACTOR  1
  k
    INTERNAL  FACTOR  1.0
        12.50000000      12.50000000      12.50000000      12.50000000      12.50000000      12.50000000      12.50000000      12.50000000      12.50000000      12.50000000      12.50000000      12.50000000      12.50000000      12.50000000      12.50000000      12.50000000      12.50000000      12.50000000      12.50000000      12.50000000
        12.50000000      12.50000000      12.50000000      12.50000000      12.50000000      12.50000000      12.50000000      12.50000000      12.50000000      12.50000000      12.50000000      12.50000000      12.50000000      12.50000000      12.50000000      12.50000000      12.50000000      12.50000000      12.50000000      12.50000000
        12.50000000      12.50000000      12.50000000      12.50000000      12.50000000      12.50000000      12.50000000      12.50000000      12.50000000      12.50000000      12.50000000      12.50000000      12.50000000      12.50000000      12.50000000      12.50000000      12.50000000      12.50000000      12.50000000      12.50000000
        12.50000000      12.50000000      12.50000000      12.50000000      12.50000000      12.50000000      12.50000000      12.50000000      12.50000000      12.50000000      12.50000000      12.50000000      12.50000000      12.50000000      12.50000000      12.50000000      12.50000000      12.50000000      12.50000000      12.50000000
        12.50000000      12.50000000      12.50000000      12.50000000      12.50000000      12.50000000      12.50000000      12.50000000      12.50000000      12.50000000      12.50000000      12.50000000      12.50000000      12.50000000      12.50000000      12.50000000      12.50000000      12.50000000      12.50000000      12.50000000
        12.50000000      12.50000000      12.50000000      12.50000000      12.50000000      12.50000000      12.50000000      12.50000000      12.50000000      12.50000000      12.40000000      12.40000000      12.40000000      12.40000000      12.40000000      12.40000000      12.40000000      12.40000000      12.40000000      12.40000000
        12.40000000      12.40000000      12.40000000      12.40000000      12.40000000      12.40000000      12.40000000      12.40000000      12.40000000      12.40000000      12.40000000      12.40000000      12.40000000      12.40000000      12.40000000      12.40000000      12.40000000      12.40000000      12.40000000      12.40000000
        12.40000000      12.40000000      12.40000000      12.40000000      12.40000000      12.40000000      12.40000000      12.40000000      12.40000000      12.40000000      12.40000000      12.40000000      12.40000000      12.40000000      12.40000000      12.40000000      12.40000000      12.40000000      12.40000000      12.40000000
        12.40000000      12.40000000      12.40000000      12.40000000      11.10000000      11.10000000      11.10000000      12.40000000      12.40000000      12.40000000      12.40000000      12.40000000      12.40000000      12.40000000      12.40000000      12.40000000      12.40000000      12.40000000      12.40000000      12.40000000
        12.40000000      12.40000000      12.40000000      12.40000000      11.10000000      11.10000000      11.10000000      11.10000000      12.40000000      12.40000000      12.40000000      12.40000000      12.40000000      12.40000000      12.40000000      12.40000000      12.40000000      12.40000000      12.40000000      12.40000000
        12.40000000      12.40000000      12.40000000      12.40000000      11.10000000      11.10000000      11.10000000      11.10000000      12.40000000      12.40000000      12.40000000      12.40000000      12.40000000      12.40000000      12.40000000      12.40000000      12.40000000      12.40000000      12.40000000      12.40000000
        12.40000000      12.40000000      12.40000000      12.40000000      11.10000000      11.10000000      11.10000000      11.10000000      12.40000000      12.40000000      12.40000000      12.40000000      12.40000000      12.40000000      12.40000000      12.40000000      12.40000000      12.40000000      12.40000000      12.40000000
        12.40000000      12.40000000      12.40000000      12.40000000      11.10000000      11.10000000      11.10000000      11.10000000      12.40000000      12.40000000      12.40000000      12.40000000      12.40000000      12.40000000      12.40000000      12.40000000      12.40000000      12.40000000      12.40000000      12.40000000
        12.40000000      12.40000000      12.40000000      12.40000000      11.10000000      11.10000000      11.10000000      11.10000000      12.40000000      12.40000000      12.40000000      12.40000000      12.40000000      12.40000000      12.40000000      12.40000000      12.40000000      12.40000000      12.40000000      12.40000000
        12.40000000      12.40000000      12.40000000      12.40000000      11.10000000      11.10000000      11.10000000      11.10000000      12.40000000      12.40000000      12.40000000      12.40000000      12.40000000      12.40000000      12.40000000      12.40000000      12.40000000      12.40000000      12.40000000      12.40000000
        12.40000000      12.40000000      12.40000000      12.40000000      11.10000000      11.10000000      11.10000000      11.10000000      12.40000000      12.40000000      12.40000000      12.40000000      12.40000000      12.40000000      12.40000000      12.40000000      12.30000000      12.30000000      12.30000000      12.30000000
        12.30000000      12.30000000      12.30000000      12.30000000      11.10000000      11.10000000      11.10000000      11.10000000      12.30000000      12.30000000      12.30000000      12.30000000      12.30000000      12.30000000      12.30000000      12.30000000      12.30000000      12.30000000      12.30000000      12.30000000
        12.30000000      12.30000000      12.30000000      12.30000000      11.10000000      11.10000000      11.10000000      11.10000000      12.30000000      12.30000000      12.30000000      12.30000000      12.30000000      12.30000000      12.30000000      12.30000000      12.30000000      12.30000000      12.30000000      12.30000000
        12.30000000      12.30000000      12.30000000      12.30000000      11.10000000      11.10000000      11.10000000      11.10000000      12.30000000      12.30000000      12.30000000      12.30000000      12.30000000      12.30000000      12.30000000      12.30000000      12.30000000      12.30000000      12.30000000      12.30000000
        12.30000000      12.30000000      12.30000000      12.30000000      11.10000000      11.10000000      11.10000000      11.10000000      12.30000000      12.30000000      12.30000000      12.30000000      12.30000000      12.30000000      12.30000000      12.30000000      12.30000000      12.30000000      12.30000000      12.30000000
        12.30000000      12.30000000      12.30000000      12.30000000      11.10000000      11.10000000      11.10000000      11.10000000      12.30000000      12.30000000      12.30000000      12.30000000      12.30000000      12.30000000      12.30000000      12.30000000      12.30000000      12.30000000      12.30000000      12.30000000
        12.30000000      12.30000000      12.30000000      12.30000000      11.10000000      11.10000000      12.30000000      12.30000000      12.30000000      12.30000000      12.30000000      12.30000000      12.30000000      12.30000000      12.30000000      12.30000000      12.20000000      12.20000000      12.20000000      12.20000000
        12.20000000      12.20000000      12.20000000      12.20000000      12.20000000      11.10000000      12.20000000      12.20000000      12.20000000      12.20000000      12.20000000      12.20000000      12.20000000      12.20000000      12.20000000      12.20000000      12.20000000      12.20000000      12.20000000      12.20000000
        12.20000000      12.20000000      12.20000000      12.20000000      12.20000000      12.20000000      12.20000000      12.20000000      12.20000000      12.20000000      12.20000000      12.20000000      12.20000000      12.20000000      12.20000000      12.20000000      12.20000000      12.20000000      12.20000000      12.20000000
        12.20000000      12.20000000      12.20000000      12.20000000      12.20000000      12.20000000      12.20000000      12.20000000      12.20000000      12.20000000      12.20000000      12.20000000      12.20000000      12.10000000      12.10000000      12.10000000      12.10000000      12.10000000      12.10000000      12.10000000
        12.10000000      12.10000000      12.10000000      12.10000000      12.10000000      12.10000000      12.10000000      12.10000000      12.10000000      12.10000000      12.10000000      12.10000000      12.10000000      12.10000000      12.10000000      12.10000000      12.10000000      12.10000000      12.10000000      12.10000000
        12.10000000      12.10000000      12.10000000      12.10000000      12.10000000      12.10000000      12.10000000      12.10000000      12.10000000      12.10000000      12.10000000      12.10000000      12.10000000      12.10000000      12.10000000      12.10000000      12.10000000      12.10000000      12.10000000      12.10000000
        12.10000000      12.10000000      12.10000000      12.10000000      12.10000000      12.10000000      12.10000000      12.10000000      12.10000000      12.10000000      12.10000000      12.10000000      12.10000000      12.10000000      12.10000000      12.10000000      12.10000000      12.10000000      12.10000000      12.10000000
        12.10000000      12.10000000      12.10000000      12.10000000      12.10000000      12.10000000      12.10000000      12.10000000      12.10000000      12.10000000      12.10000000      12.10000000      12.10000000      12.10000000      12.10000000      12.10000000      12.10000000      12.10000000      12.10000000      12.10000000
        12.10000000      12.10000000      12.10000000      12.10000000      12.10000000      12.10000000      12.10000000      12.10000000      12.10000000      12.10000000      12.10000000      12.10000000      12.10000000      12.10000000      12.10000000      12.10000000      12.10000000      12.10000000      12.10000000      12.10000000
        12.10000000      12.10000000      12.10000000      12.10000000      12.10000000      12.10000000      12.10000000      12.10000000      12.10000000      12.10000000      12.10000000      12.10000000      12.10000000      12.10000000      12.10000000      12.10000000      12.10000000      12.10000000      12.10000000      12.10000000
        12.10000000      12.10000000      12.10000000      12.10000000      12.10000000      12.10000000      12.10000000      12.10000000      12.10000000      12.10000000      12.10000000      12.10000000      12.10000000      12.10000000      12.10000000      12.10000000      12.10000000      12.10000000      12.10000000      12.10000000
        11.10000000      12.10000000      12.10000000      12.10000000      12.10000000      12.10000000      12.10000000      12.10000000      12.10000000      12.10000000      12.10000000      12.10000000      12.10000000      12.10000000      12.10000000      12.10000000      12.10000000      12.10000000      12.10000000      12.10000000
        11.10000000      11.10000000      12.10000000      12.10000000      12.10000000      12.10000000      12.10000000      12.10000000      12.10000000      12.10000000      12.10000000      12.10000000      12.10000000      12.10000000      12.10000000      12.10000000      12.10000000      12.10000000      12.10000000      12.10000000
        11.10000000      11.10000000      11.10000000      12.10000000      12.10000000      12.10000000      12.10000000      12.10000000      12.10000000      12.10000000      12.10000000      12.10000000      12.10000000      12.10000000      12.10000000      12.00000000      12.00000000      12.00000000      12.00000000      11.90000000
        11.10000000      11.10000000      11.10000000      11.10000000      11.90000000      11.90000000      11.90000000      11.90000000      11.90000000      11.90000000      11.90000000      11.90000000      11.90000000      11.90000000      11.90000000      11.90000000      11.90000000      11.90000000      11.90000000      11.10000000
        11.10000000      11.10000000      11.10000000      11.10000000      11.90000000      11.90000000      11.90000000      11.90000000      11.90000000      11.90000000      11.90000000      11.90000000      11.90000000      11.90000000      11.90000000      11.90000000      11.90000000      11.90000000      11.90000000      11.10000000
        11.10000000      11.10000000      11.10000000      11.10000000      11.10000000      11.90000000      11.90000000      11.90000000      11.90000000      11.90000000      11.90000000      11.90000000      11.90000000      11.90000000      11.90000000      11.90000000      11.90000000      11.90000000      11.10000000      11.10000000
        11.10000000      11.10000000      11.10000000      11.10000000      11.10000000      11.90000000      11.90000000      11.90000000      11.90000000      11.90000000      11.90000000      11.90000000      11.90000000      11.90000000      11.90000000      11.80000000      11.80000000      11.10000000      11.10000000      11.10000000
        11.10000000      11.10000000      11.10000000      11.10000000      11.10000000      11.80000000      11.80000000      11.80000000      11.80000000      11.80000000      11.80000000      11.80000000      11.80000000      11.80000000      11.80000000      11.80000000      11.10000000      11.10000000      11.10000000      11.10000000
  k33  LAYERED
    OPEN/CLOSE  'freyberg6.npf_k33_layer1.txt'  FACTOR  1.0
END GRIDDATA

