# File generated by Flopy version 3.3.5 on 02/03/2023 at 10:35:18.
BEGIN Options
  TIME_UNITS  days
END Options

BEGIN Dimensions
  NPER  1
END Dimensions

BEGIN PERIODDATA
       0.10000000  1       1.00000000
END PERIODDATA

