# File generated by Flopy version 3.3.5 on 02/02/2023 at 16:08:08.
BEGIN Options
  READASARRAYS
  SAVE_FLOWS
END Options

BEGIN PERIOD  1
  recharge
    OPEN/CLOSE  'freyberg6.rch_recharge_1.txt'  FACTOR  1.0
END PERIOD  1

