# File generated by Flopy version 3.3.5 on 04/18/2023 at 14:30:53.
BEGIN GRIDDATA
  strt  LAYERED
    OPEN/CLOSE  'freyberg6.ic_strt_layer1.txt'  FACTOR  1.0
END GRIDDATA

