# File generated by Flopy version 3.3.5 on 02/03/2023 at 10:35:18.
BEGIN Options
  READASARRAYS
  SAVE_FLOWS
END Options

BEGIN PERIOD  1
  recharge
    OPEN/CLOSE  'freyberg6.rch_recharge_1.txt'  FACTOR  1.0
END PERIOD  1

