# File generated by Flopy version 3.3.5 on 04/18/2023 at 14:30:53.
BEGIN Options
  PRINT_INPUT
  PRINT_FLOWS
  SAVE_FLOWS
END Options

BEGIN Dimensions
  MAXBOUND  6
END Dimensions

BEGIN PERIOD  1
  1 10 17    -157.50000000
  1 12 14    -157.50000000
  1 21 15    -157.50000000
  1 27 11    -157.50000000
  1 30 7    -157.50000000
  1 35 13    -157.50000000
END PERIOD  1

