# File generated by Flopy version 3.3.5 on 04/18/2023 at 14:30:53.
BEGIN Options
  TIME_UNITS  days
END Options

BEGIN Dimensions
  NPER  1
END Dimensions

BEGIN PERIODDATA
       0.10000000  1       1.00000000
END PERIODDATA

