# File generated by Flopy version 3.3.5 on 02/03/2023 at 11:34:00.
BEGIN Options
END Options

BEGIN GRIDDATA
  iconvert  LAYERED
    OPEN/CLOSE  'freyberg6.sto_iconvert_layer1.txt'  FACTOR  1
  ss  LAYERED
    OPEN/CLOSE  'freyberg6.sto_ss_layer1.txt'  FACTOR  1.0
  sy  LAYERED
    OPEN/CLOSE  'freyberg6.sto_sy_layer1.txt'  FACTOR  1.0
END GRIDDATA

BEGIN Period  1
  STEADY-STATE
END Period  1

