# File generated by Flopy version 3.3.5 on 04/18/2023 at 14:30:53.
BEGIN Options
  READASARRAYS
  SAVE_FLOWS
END Options

BEGIN PERIOD  1
  recharge
    OPEN/CLOSE  'freyberg6.rch_recharge_1.txt'  FACTOR  1.0
END PERIOD  1

