# File generated by Flopy version 3.3.5 on 02/02/2023 at 16:08:09.
BEGIN options
END options

BEGIN continuous  FILEOUT  sfr.csv
  headwater  sfr  headwater
  tailwater  sfr  tailwater
  gage_1  inflow  40.0
END continuous  FILEOUT  sfr.csv

