# File generated by Flopy version 3.3.4 on 05/23/2022 at 17:06:54.
BEGIN options
END options

BEGIN griddata
  icelltype
    CONSTANT  1
  k
    INTERNAL  FACTOR  1.0
        10.00000000      10.00000000      10.00000000      10.00000000      10.00000000      10.00000000      10.00000000      10.00000000      10.00000000      10.00000000      10.00000000
        10.00000000       8.12830520      11.48153620       9.54992590      13.18256740      11.48153620       8.91250940      10.96478200      11.48153620      11.22018450      10.00000000
        10.00000000       9.54992590      10.71519310      11.48153620      10.47128550       9.77237220       9.54992590       7.07945780      10.00000000       7.07945780      10.00000000
        10.00000000      12.02264430      12.30268770       8.31763770       8.31763770       7.07945780      13.80384260      12.30268770      12.58925410       8.51138040      10.00000000
        10.00000000      10.96478200      10.23292990      12.88249550       8.12830520      11.74897550      10.71519310      14.12537540      10.00000000       7.24435960      10.00000000
        10.00000000      10.23292990       8.51138040       8.70963590       9.12010840      12.88249550      12.88249550      12.58925410       9.12010840       7.07945780      10.00000000
        10.00000000       9.33254300      13.48962880      10.00000000      12.02264430      10.71519310      10.96478200       7.76247120       9.33254300       9.33254300      10.00000000
        10.00000000      13.80384260       7.41310240       7.76247120       9.54992590       8.51138040       7.07945780      10.47128550      12.58925410      12.02264430      10.00000000
        10.00000000       9.33254300       7.58577580      10.47128550       8.70963590      11.74897550       7.24435960      10.23292990       8.70963590      13.80384260      10.00000000
        10.00000000      14.12537540       7.07945780       7.07945780      12.30268770      10.71519310      12.02264430       9.33254300      10.96478200       9.12010840      10.00000000
        10.00000000      10.00000000      10.00000000      10.00000000      10.00000000      10.00000000      10.00000000      10.00000000      10.00000000      10.00000000      10.00000000
END griddata

