# File generated by Flopy version 3.3.4 on 05/23/2022 at 17:06:54.
BEGIN options
END options

BEGIN dimensions
  MAXBOUND  1
END dimensions

BEGIN period  1
  1 6 6    -300.00000000
END period  1

