BEGIN Options
  PRINT_INPUT
  PRINT_FLOWS
  SAVE_FLOWS
END Options

BEGIN Dimensions
  MAXBOUND  6
END Dimensions

BEGIN PERIOD  1
3 29 50  -1.574999999999999e+02
3 35 41  -1.5749999999999994e+02
3 62 44  -1.5749999999999994e+02
3 80 32  -1.5749999999999994e+02
3 89 20  -1.574999999999999e+02
3 104 38 -1.5749999999999994e+02
END PERIOD  1

BEGIN PERIOD  2
3 29 50  -56.449350000000016792
3 35 41  -56.4493500000000167915
3 62 44  -56.4493500000000167915
3 80 32  -56.4493500000000167915
3 89 20  -56.449350000000016792
3 104 38 -56.4493500000000167915
END PERIOD  2

BEGIN PERIOD  3
3 29 50  -62.632107000000004859
3 35 41  -62.6321070000000048594
3 62 44  -62.6321070000000048594
3 80 32  -62.6321070000000048594
3 89 20  -62.632107000000004859
3 104 38 -62.6321070000000048594
END PERIOD  3

BEGIN PERIOD  4
3 29 50  -96.436718999999982316
3 35 41  -96.4367189999999823158
3 62 44  -96.4367189999999823158
3 80 32  -96.4367189999999823158
3 89 20  -96.436718999999982316
3 104 38 -96.4367189999999823158
END PERIOD  4

BEGIN PERIOD  5
3 29 50  -1.480205880000000e+02
3 35 41  -1.4802058800000003e+02
3 62 44  -1.4802058800000003e+02
3 80 32  -1.4802058800000003e+02
3 89 20  -1.480205880000000e+02
3 104 38 -1.4802058800000003e+02
END PERIOD  5

BEGIN PERIOD  6
3 29 50  -2.023644690000001e+02
3 35 41  -2.0236446900000010e+02
3 62 44  -2.0236446900000010e+02
3 80 32  -2.0236446900000010e+02
3 89 20  -2.023644690000001e+02
3 104 38 -2.0236446900000010e+02
END PERIOD  6

BEGIN PERIOD  7
3 29 50  -2.436456149999999e+02
3 35 41  -2.4364561499999994e+02
3 62 44  -2.4364561499999994e+02
3 80 32  -2.4364561499999994e+02
3 89 20  -2.436456149999999e+02
3 104 38 -2.4364561499999994e+02
END PERIOD  7

BEGIN PERIOD  8
3 29 50  -2.624428800000000e+02
3 35 41  -2.6244288000000000e+02
3 62 44  -2.6244288000000000e+02
3 80 32  -2.6244288000000000e+02
3 89 20  -2.624428800000000e+02
3 104 38 -2.6244288000000000e+02
END PERIOD  8

BEGIN PERIOD  9
3 29 50  -2.598444540000000e+02
3 35 41  -2.5984445400000004e+02
3 62 44  -2.5984445400000004e+02
3 80 32  -2.5984445400000004e+02
3 89 20  -2.598444540000000e+02
3 104 38 -2.5984445400000004e+02
END PERIOD  9

BEGIN PERIOD  10
3 29 50  -2.462445630000000e+02
3 35 41  -2.4624456300000003e+02
3 62 44  -2.4624456300000003e+02
3 80 32  -2.4624456300000003e+02
3 89 20   -2.462445630000000e+02
3 104 38 -2.4624456300000003e+02
END PERIOD  10

BEGIN PERIOD  11
3 29 50  -2.0680571699999993e+02
3 35 41  -2.06805716999999930e+02
3 62 44  -2.06805716999999930e+02
3 80 32  -2.06805716999999930e+02
3 89 20  -2.0680571699999993e+02
3 104 38 -2.06805716999999930e+02
END PERIOD  11

BEGIN PERIOD  12
3 29 50  -1.5301096200000006e+02
3 35 41  -1.53010962000000063e+02
3 62 44  -1.53010962000000063e+02
3 80 32  -1.53010962000000063e+02
3 89 20  -1.5301096200000006e+02
3 104 38 -1.53010962000000063e+02
END PERIOD  12

BEGIN PERIOD  13
3 29 50  -1.0052322300000000e+02
3 35 41  -1.00523223000000002e+02
3 62 44  -1.00523223000000002e+02
3 80 32  -1.00523223000000002e+02
3 89 20  -1.0052322300000000e+02
3 104 38 -1.00523223000000002e+02
END PERIOD  13

BEGIN PERIOD  14
3 29 50  -64.6249230000000096652
3 35 41  -64.62492300000000966520
3 62 44  -64.62492300000000966520
3 80 32  -64.62492300000000966520
3 89 20  -64.6249230000000096652
3 104 38 -64.62492300000000966520
END PERIOD  14

BEGIN PERIOD  15
3 29 50  -55.7682426000000006638
3 35 41  -55.76824260000000066384
3 62 44  -55.76824260000000066384
3 80 32  -55.76824260000000066384
3 89 20  -55.7682426000000006638
3 104 38 -55.76824260000000066384
END PERIOD  15

BEGIN PERIOD  16
3 29 50  -76.5318959999999890442
3 35 41  -76.53189599999998904423
3 62 44  -76.53189599999998904423
3 80 32  -76.53189599999998904423
3 89 20  -76.5318959999999890442
3 104 38 -76.53189599999998904423
END PERIOD  16

BEGIN PERIOD  17
3 29 50  -1.2087031500000003e+02
3 35 41  -1.20870315000000033e+02
3 62 44  -1.20870315000000033e+02
3 80 32  -1.20870315000000033e+02
3 89 20  -1.2087031500000003e+02
3 104 38 -1.20870315000000033e+02
END PERIOD  17

BEGIN PERIOD  18
3 29 50  -1.7587389600000006e+02
3 35 41  -1.75873896000000059e+02
3 62 44  -1.75873896000000059e+02
3 80 32  -1.75873896000000059e+02
3 89 20  -1.7587389600000006e+02
3 104 38 -1.75873896000000059e+02
END PERIOD  18

BEGIN PERIOD  19
3 29 50  -2.2552768800000007e+02
3 35 41  -2.25527688000000069e+02
3 62 44  -2.25527688000000069e+02
3 80 32  -2.25527688000000069e+02
3 89 20 -2.2552768800000007e+02
3 104 38 -2.25527688000000069e+02
END PERIOD  19

BEGIN PERIOD  20
3 29 50  -2.5537445999999997e+02
3 35 41  -2.55374459999999971e+02
3 62 44  -2.55374459999999971e+02
3 80 32  -2.55374459999999971e+02
3 89 20 -2.5537445999999997e+02
3 104 38 -2.55374459999999971e+02
END PERIOD  20

BEGIN PERIOD  21
3 29 50  -2.5672401000000013e+02
3 35 41  -2.56724010000000135e+02
3 62 44  -2.56724010000000135e+02
3 80 32  -2.56724010000000135e+02
3 89 20 -2.5672401000000013e+02
3 104 38 -2.56724010000000135e+02
END PERIOD  21

BEGIN PERIOD  22
3 29 50  -2.2918334399999992e+02
3 35 41  -2.29183343999999920e+02
3 62 44  -2.29183343999999920e+02
3 80 32  -2.29183343999999920e+02
3 89 20 -2.2918334399999992e+02
3 104 38 -2.29183343999999920e+02
END PERIOD  22

BEGIN PERIOD  23
3 29 50  -1.8077130899999995e+02
3 35 41  -1.80771308999999945e+02
3 62 44  -1.80771308999999945e+02
3 80 32  -1.80771308999999945e+02
3 89 20 -1.8077130899999995e+02
3 104 38 -1.80771308999999945e+02
END PERIOD  23

BEGIN PERIOD  24
3 29 50  -1.2558355200000005e+02
3 35 41  -1.25583552000000054e+02
3 62 44  -1.25583552000000054e+02
3 80 32  -1.25583552000000054e+02
3 89 20 -1.2558355200000005e+02
3 104 38 -1.25583552000000054e+02
END PERIOD  24

BEGIN PERIOD  25
3 29 50  -79.6886235000000056061
3 35 41  -79.68862350000000560613
3 62 44  -79.68862350000000560613
3 80 32  -79.68862350000000560613
3 89 20 -79.6886235000000056061
3 104 38 -79.68862350000000560613
END PERIOD  25

