# File generated by Flopy version 3.3.7 on 06/06/2023 at 15:50:31.
BEGIN griddata
  strt
    CONSTANT      23.00000000
END griddata

