# File generated by Flopy version 3.3.7 on 06/06/2023 at 15:50:31.
BEGIN options
  HEAD  FILEOUT  ex-gwf-zaidel.hds
END options

BEGIN period  1
  SAVE  HEAD  ALL
END period  1

