# File generated by Flopy version 3.3.7 on 06/06/2023 at 15:50:31.
BEGIN options
END options

BEGIN griddata
  icelltype
    CONSTANT  1
  k
    CONSTANT  1.00000000E-04
END griddata

