BEGIN Options
END Options

BEGIN GRIDDATA
  iconvert  LAYERED
    CONSTANT  1
  ss  LAYERED
    constant 0.00001
  sy  LAYERED
    constant 0.01
END GRIDDATA

BEGIN Period  1
  STEADY-STATE
END Period  1

BEGIN Period  2
  TRANSIENT
END Period  2

