# File generated by Flopy version 3.3.7 on 06/06/2023 at 15:50:31.
BEGIN options
END options

BEGIN dimensions
  MAXBOUND  2
END dimensions

BEGIN period  1
  1 1 1      23.00000000
  1 1 200      10.00000000
END period  1

BEGIN period  2
  1 1 1      21.00000000
  1 1 200      1.00000000
END period  2

BEGIN period  3
  1 1 1      24.00000000
  1 1 200      9.00000000
END period  3

