# File generated by Flopy version 3.3.7 on 06/06/2023 at 15:50:31.
BEGIN options
  NEWTON
END options

BEGIN packages
  DIS6  ex-gwf-zaidel.dis  dis
  NPF6  ex-gwf-zaidel.npf  npf
  IC6  ex-gwf-zaidel.ic  ic
  CHD6  ex-gwf-zaidel.chd  chd_0
  OC6  ex-gwf-zaidel.oc  oc
  STO6 ex-gwf-zaidel.sto
END packages

