
begin options

end options

#begin performance_measure pm1 type direct
#1 1 1 20 10 1.0 
#end performance_measure
#from MF6-ADJ.INP file - format is sp,ts,l,r,c,obsval,weight,name - all one-based!
begin performance_measure pm1 type direct
1  1  1  1    1.0 
1  1  1  10   1.0 
1  1  1  20   1.0 
1  1  1  30   1.0 
1  1  1  40   1.0 
1  1  1  50   1.0 
1  1  1  60   1.0 
1  1  1  70   1.0 
1  1  1  80   1.0 
1  1  1  90   1.0 
1  1  1  100  1.0 
1  1  1  110  1.0 
1  1  1  120  1.0 
1  1  1  130  1.0 
1  1  1  140  1.0 
1  1  1  150  1.0 
1  1  1  160  1.0 
1  1  1  170  1.0 
1  1  1  180  1.0 
1  1  1  190  1.0 
1  1  1  200  1.0 
end performance_measure

begin performance_measure pm2 type residual
1  1  1  1   21 1.0 
1  1  1  10  21 1.0 
1  1  1  20  21 1.0 
1  1  1  30  21 1.0 
1  1  1  40  16 1.0 
1  1  1  50  16 1.0 
1  1  1  60  16 1.0 
1  1  1  70  16 1.0 
1  1  1  80  11 1.0 
1  1  1  90  11 1.0 
1  1  1  100 11 1.0 
1  1  1  110 11 1.0 
1  1  1  120  6 1.0 
1  1  1  130  6 1.0 
1  1  1  140  6 1.0 
1  1  1  150  6 1.0 
1  1  1  160  1 1.0 
1  1  1  170  1 1.0 
1  1  1  180  1 1.0 
1  1  1  190  1 1.0 
1  1  1  200  1  1.0 
end performance_measure