# File generated by Flopy version 3.5.0.dev0 on 07/29/2024 at 12:54:12.
BEGIN options
END options

BEGIN dimensions
  NLAY  63
  NCPL  3040
  NVERT  3306
END dimensions

BEGIN griddata
  top
    INTERNAL  FACTOR  1.0
      1285.83996582    1286.67004395    1288.00000000    1287.81994629    1294.39001465    1300.20996094    1311.66003418    1323.21997070    1335.35998535    1346.81005859    1289.55004883    1291.91003418    1292.95996094    1295.01000977    1297.61999512    1302.36999512    1305.65002441    1309.72998047    1319.81005859    1330.18994141
      1291.88000488    1295.83996582    1297.54003906    1301.18994141    1301.18994141    1301.18994141    1301.18994141    1302.01000977    1302.01000977    1302.01000977    1302.01000977    1302.01000977    1302.01000977    1302.01000977    1305.47998047    1310.67004395    1316.48999023    1317.34997559    1320.14001465    1292.70996094
      1298.43005371    1303.51000977    1306.46997070    1306.46997070    1306.46997070    1306.46997070    1306.46997070    1306.46997070    1306.46997070    1306.46997070    1306.46997070    1306.46997070    1306.46997070    1306.46997070    1306.46997070    1306.46997070    1306.46997070    1306.46997070    1306.67004395    1306.67004395
      1306.67004395    1306.67004395    1306.67004395    1306.67004395    1306.67004395    1306.67004395    1306.67004395    1306.67004395    1306.67004395    1306.67004395    1306.67004395    1306.67004395    1306.67004395    1306.67004395    1306.67004395    1306.67004395    1306.67004395    1306.67004395    1306.67004395    1306.67004395
      1306.67004395    1306.67004395    1306.67004395    1306.67004395    1306.67004395    1306.67004395    1306.67004395    1306.67004395    1306.67004395    1306.67004395    1306.67004395    1306.67004395    1306.67004395    1306.67004395    1306.67004395    1306.67004395    1306.67004395    1306.67004395    1306.67004395    1306.67004395
      1306.67004395    1306.67004395    1306.67004395    1306.67004395    1306.67004395    1306.67004395    1306.67004395    1306.67004395    1306.67004395    1306.67004395    1306.67004395    1306.67004395    1306.67004395    1306.67004395    1306.67004395    1306.67004395    1306.67004395    1306.67004395    1306.67004395    1306.67004395
      1306.67004395    1306.67004395    1306.67004395    1306.67004395    1306.67004395    1306.67004395    1306.67004395    1306.67004395    1306.67004395    1306.67004395    1306.67004395    1306.67004395    1306.67004395    1306.67004395    1306.67004395    1306.67004395    1306.67004395    1306.67004395    1306.67004395    1306.67004395
      1306.67004395    1306.67004395    1306.67004395    1306.67004395    1306.67004395    1306.67004395    1306.67004395    1306.67004395    1306.67004395    1306.67004395    1306.67004395    1306.67004395    1306.67004395    1306.67004395    1306.67004395    1306.67004395    1306.67004395    1306.67004395    1306.67004395    1306.67004395
      1306.67004395    1306.67004395    1306.67004395    1306.67004395    1306.67004395    1306.67004395    1306.67004395    1306.67004395    1306.67004395    1306.67004395    1306.67004395    1306.67004395    1306.67004395    1306.67004395    1306.67004395    1306.67004395    1306.67004395    1306.67004395    1306.67004395    1306.67004395
      1306.67004395    1306.67004395    1306.67004395    1306.67004395    1306.67004395    1306.67004395    1306.67004395    1306.67004395    1306.67004395    1306.67004395    1306.67004395    1306.67004395    1306.67004395    1306.67004395    1306.67004395    1306.67004395    1306.67004395    1306.67004395    1306.67004395    1306.67004395
      1306.67004395    1306.67004395    1306.67004395    1306.67004395    1306.67004395    1306.67004395    1306.67004395    1306.67004395    1306.67004395    1306.67004395    1306.67004395    1306.67004395    1306.67004395    1306.67004395    1306.67004395    1306.67004395    1306.67004395    1306.67004395    1306.67004395    1306.67004395
      1306.67004395    1306.67004395    1306.67004395    1306.67004395    1306.67004395    1306.67004395    1306.67004395    1306.67004395    1306.67004395    1306.67004395    1306.67004395    1306.67004395    1306.67004395    1306.67004395    1306.67004395    1306.67004395    1306.67004395    1306.67004395    1306.67004395    1306.67004395
      1306.67004395    1306.67004395    1306.67004395    1306.67004395    1306.67004395    1309.94995117    1309.94995117    1309.94995117    1309.94995117    1309.94995117    1309.94995117    1309.94995117    1309.94995117    1309.94995117    1309.94995117    1309.94995117    1309.94995117    1309.94995117    1309.94995117    1309.94995117
      1309.94995117    1312.06005859    1312.06005859    1312.06005859    1312.06005859    1322.31005859    1325.36999512    1328.31005859    1295.81994629    1299.80004883    1304.08996582    1309.25000000    1309.25000000    1309.25000000    1309.25000000    1309.25000000    1309.25000000    1309.25000000    1312.22998047    1312.22998047
      1312.22998047    1312.22998047    1312.22998047    1312.22998047    1312.22998047    1312.22998047    1312.22998047    1312.22998047    1312.22998047    1312.22998047    1312.22998047    1312.22998047    1312.22998047    1312.22998047    1312.22998047    1312.22998047    1312.22998047    1312.22998047    1312.22998047    1312.22998047
      1312.22998047    1312.22998047    1312.22998047    1312.22998047    1312.22998047    1312.22998047    1312.22998047    1312.22998047    1312.22998047    1312.22998047    1312.22998047    1312.22998047    1312.22998047    1312.22998047    1312.22998047    1312.22998047    1312.22998047    1312.22998047    1312.22998047    1312.22998047
      1312.22998047    1312.22998047    1312.22998047    1312.22998047    1312.22998047    1312.22998047    1312.22998047    1312.22998047    1312.22998047    1312.22998047    1312.22998047    1312.22998047    1312.22998047    1312.22998047    1312.22998047    1312.22998047    1312.22998047    1312.22998047    1312.22998047    1312.22998047
      1312.22998047    1312.22998047    1312.22998047    1312.22998047    1312.22998047    1312.22998047    1312.22998047    1312.22998047    1312.22998047    1312.22998047    1312.22998047    1312.22998047    1312.22998047    1312.22998047    1312.22998047    1312.22998047    1312.22998047    1312.22998047    1312.22998047    1312.22998047
      1312.22998047    1312.22998047    1312.22998047    1312.22998047    1312.22998047    1312.22998047    1312.22998047    1312.22998047    1312.22998047    1312.22998047    1312.22998047    1312.22998047    1312.22998047    1312.22998047    1312.22998047    1312.22998047    1312.22998047    1312.22998047    1312.22998047    1312.22998047
      1312.22998047    1312.22998047    1312.22998047    1312.22998047    1312.22998047    1312.22998047    1312.22998047    1312.22998047    1312.22998047    1312.22998047    1312.22998047    1312.22998047    1312.22998047    1312.22998047    1312.22998047    1312.22998047    1312.22998047    1312.22998047    1312.22998047    1312.22998047
      1312.22998047    1312.22998047    1312.22998047    1312.22998047    1312.22998047    1312.22998047    1312.22998047    1312.22998047    1312.22998047    1312.22998047    1312.22998047    1312.22998047    1312.22998047    1312.22998047    1312.22998047    1312.22998047    1312.22998047    1312.22998047    1312.22998047    1312.22998047
      1312.22998047    1312.22998047    1312.22998047    1312.22998047    1312.22998047    1312.22998047    1312.22998047    1312.22998047    1312.22998047    1312.22998047    1312.22998047    1312.22998047    1312.22998047    1312.22998047    1312.22998047    1312.22998047    1312.22998047    1312.22998047    1312.22998047    1312.22998047
      1312.22998047    1312.22998047    1312.22998047    1312.22998047    1312.22998047    1312.22998047    1312.22998047    1312.22998047    1312.22998047    1312.22998047    1312.22998047    1312.22998047    1312.22998047    1312.22998047    1312.22998047    1312.22998047    1312.22998047    1312.22998047    1312.22998047    1312.22998047
      1312.22998047    1312.22998047    1312.22998047    1312.22998047    1312.22998047    1312.22998047    1312.22998047    1312.22998047    1312.22998047    1312.22998047    1312.22998047    1312.22998047    1312.22998047    1312.22998047    1312.22998047    1312.22998047    1312.22998047    1312.22998047    1312.22998047    1312.22998047
      1312.22998047    1312.22998047    1312.22998047    1312.22998047    1312.22998047    1312.22998047    1312.22998047    1312.22998047    1312.22998047    1312.22998047    1312.22998047    1312.22998047    1312.22998047    1312.22998047    1312.22998047    1312.22998047    1312.22998047    1312.22998047    1312.22998047    1312.22998047
      1312.22998047    1312.22998047    1312.22998047    1312.22998047    1312.22998047    1312.22998047    1312.22998047    1312.22998047    1312.22998047    1312.22998047    1312.22998047    1312.22998047    1312.22998047    1312.22998047    1312.22998047    1312.22998047    1312.22998047    1312.22998047    1312.22998047    1312.22998047
      1312.22998047    1312.22998047    1312.22998047    1312.22998047    1312.22998047    1312.22998047    1312.22998047    1312.22998047    1312.22998047    1312.22998047    1312.22998047    1312.22998047    1312.22998047    1312.22998047    1312.22998047    1312.22998047    1312.22998047    1312.22998047    1312.22998047    1312.22998047
      1312.22998047    1312.22998047    1312.22998047    1312.22998047    1312.22998047    1312.22998047    1312.22998047    1312.22998047    1312.22998047    1312.22998047    1312.22998047    1312.22998047    1312.22998047    1312.22998047    1312.22998047    1312.22998047    1312.22998047    1312.22998047    1312.22998047    1312.22998047
      1312.22998047    1312.22998047    1312.22998047    1312.22998047    1315.52001953    1315.52001953    1315.52001953    1315.52001953    1315.52001953    1315.52001953    1315.52001953    1315.52001953    1315.52001953    1315.52001953    1315.52001953    1315.52001953    1315.52001953    1315.52001953    1315.52001953    1315.52001953
      1315.52001953    1315.52001953    1315.52001953    1315.52001953    1315.52001953    1315.52001953    1315.52001953    1315.52001953    1315.52001953    1315.52001953    1315.52001953    1315.52001953    1315.52001953    1315.52001953    1315.52001953    1315.52001953    1315.52001953    1315.52001953    1315.52001953    1315.52001953
      1315.52001953    1315.52001953    1315.52001953    1315.52001953    1315.52001953    1315.52001953    1315.52001953    1315.52001953    1315.52001953    1315.52001953    1315.52001953    1315.52001953    1315.52001953    1315.52001953    1315.52001953    1315.52001953    1315.52001953    1315.52001953    1315.52001953    1315.52001953
      1315.52001953    1315.52001953    1315.52001953    1315.52001953    1315.52001953    1315.52001953    1315.52001953    1315.52001953    1315.52001953    1315.52001953    1315.52001953    1315.52001953    1315.52001953    1315.52001953    1315.52001953    1315.52001953    1315.52001953    1315.52001953    1315.52001953    1315.52001953
      1315.52001953    1315.52001953    1315.52001953    1315.52001953    1315.52001953    1315.52001953    1315.52001953    1315.52001953    1315.52001953    1315.52001953    1315.52001953    1315.52001953    1315.52001953    1315.52001953    1315.52001953    1315.52001953    1315.52001953    1315.52001953    1315.52001953    1315.52001953
      1315.52001953    1315.52001953    1315.52001953    1315.52001953    1315.52001953    1315.52001953    1315.52001953    1315.52001953    1315.52001953    1315.52001953    1315.52001953    1315.52001953    1315.52001953    1315.52001953    1315.52001953    1315.52001953    1315.52001953    1315.52001953    1315.52001953    1315.52001953
      1315.52001953    1315.52001953    1315.52001953    1315.52001953    1315.52001953    1315.52001953    1315.52001953    1315.52001953    1315.52001953    1315.52001953    1315.52001953    1315.52001953    1315.52001953    1315.52001953    1315.52001953    1315.52001953    1315.52001953    1315.52001953    1315.52001953    1315.52001953
      1315.52001953    1315.52001953    1315.52001953    1315.52001953    1315.52001953    1315.52001953    1315.52001953    1315.52001953    1315.52001953    1315.52001953    1315.52001953    1315.52001953    1315.52001953    1315.52001953    1315.52001953    1315.52001953    1315.52001953    1315.52001953    1315.52001953    1315.52001953
      1315.52001953    1315.52001953    1315.52001953    1315.52001953    1315.52001953    1315.52001953    1315.52001953    1315.52001953    1315.52001953    1315.52001953    1315.52001953    1315.52001953    1315.52001953    1315.52001953    1315.52001953    1315.52001953    1315.52001953    1315.52001953    1315.52001953    1315.52001953
      1315.52001953    1315.52001953    1315.52001953    1315.52001953    1315.52001953    1315.52001953    1315.52001953    1315.52001953    1315.52001953    1315.52001953    1315.52001953    1315.52001953    1315.52001953    1315.52001953    1315.52001953    1315.52001953    1315.52001953    1315.52001953    1315.52001953    1315.52001953
      1315.52001953    1315.52001953    1315.52001953    1315.52001953    1315.52001953    1315.52001953    1315.52001953    1315.52001953    1315.52001953    1315.52001953    1315.52001953    1315.52001953    1315.52001953    1315.52001953    1315.52001953    1315.52001953    1315.52001953    1315.52001953    1315.52001953    1315.52001953
      1315.52001953    1315.52001953    1315.52001953    1315.52001953    1315.52001953    1315.52001953    1315.52001953    1315.52001953    1315.52001953    1315.52001953    1315.52001953    1315.52001953    1315.52001953    1315.52001953    1315.52001953    1315.52001953    1315.52001953    1315.52001953    1315.52001953    1315.52001953
      1315.52001953    1315.52001953    1315.52001953    1315.52001953    1315.52001953    1315.52001953    1315.52001953    1315.52001953    1315.52001953    1315.52001953    1315.52001953    1315.52001953    1315.52001953    1315.52001953    1315.52001953    1315.52001953    1315.52001953    1315.52001953    1315.52001953    1315.52001953
      1315.52001953    1315.52001953    1315.52001953    1315.52001953    1315.52001953    1315.52001953    1315.52001953    1315.52001953    1315.52001953    1315.52001953    1315.52001953    1315.52001953    1315.52001953    1315.52001953    1315.52001953    1315.52001953    1315.52001953    1315.52001953    1315.52001953    1315.52001953
      1315.52001953    1315.52001953    1315.52001953    1315.52001953    1315.52001953    1315.52001953    1315.52001953    1315.52001953    1315.52001953    1315.52001953    1315.52001953    1315.52001953    1315.52001953    1315.52001953    1315.52001953    1315.52001953    1315.52001953    1315.52001953    1315.52001953    1315.52001953
      1315.52001953    1315.52001953    1315.52001953    1315.52001953    1315.52001953    1315.52001953    1315.52001953    1315.52001953    1315.52001953    1315.52001953    1315.52001953    1315.52001953    1315.52001953    1315.52001953    1315.52001953    1315.52001953    1315.52001953    1315.52001953    1315.52001953    1315.52001953
      1315.52001953    1315.52001953    1315.52001953    1315.52001953    1315.52001953    1315.52001953    1315.52001953    1315.52001953    1315.52001953    1315.52001953    1315.52001953    1315.52001953    1315.52001953    1315.52001953    1315.52001953    1315.52001953    1315.52001953    1315.52001953    1315.52001953    1315.52001953
      1315.52001953    1315.52001953    1315.52001953    1315.52001953    1315.52001953    1315.52001953    1315.52001953    1315.52001953    1315.52001953    1315.52001953    1315.52001953    1315.52001953    1315.52001953    1315.52001953    1315.52001953    1315.52001953    1315.52001953    1315.52001953    1315.52001953    1315.52001953
      1315.52001953    1315.52001953    1315.52001953    1315.52001953    1315.52001953    1315.52001953    1315.52001953    1315.52001953    1315.52001953    1315.52001953    1315.52001953    1315.52001953    1315.52001953    1315.52001953    1315.52001953    1315.52001953    1315.52001953    1315.52001953    1315.52001953    1315.52001953
      1315.52001953    1315.52001953    1315.52001953    1315.52001953    1315.52001953    1315.52001953    1315.52001953    1315.52001953    1315.52001953    1315.52001953    1315.52001953    1315.52001953    1315.52001953    1315.52001953    1315.52001953    1315.52001953    1315.52001953    1315.52001953    1315.52001953    1315.52001953
      1315.52001953    1315.52001953    1315.52001953    1315.52001953    1315.52001953    1315.52001953    1315.52001953    1315.52001953    1315.52001953    1315.52001953    1315.52001953    1315.52001953    1315.52001953    1315.52001953    1315.52001953    1315.52001953    1315.52001953    1315.52001953    1315.52001953    1315.52001953
      1315.52001953    1315.52001953    1315.52001953    1315.52001953    1315.52001953    1315.52001953    1315.52001953    1315.52001953    1315.52001953    1315.52001953    1315.52001953    1315.52001953    1315.52001953    1315.52001953    1315.52001953    1315.52001953    1315.52001953    1315.52001953    1315.52001953    1315.52001953
      1315.52001953    1315.52001953    1315.52001953    1315.52001953    1315.52001953    1315.52001953    1315.52001953    1315.52001953    1315.52001953    1315.52001953    1315.52001953    1315.52001953    1315.52001953    1315.52001953    1315.52001953    1315.52001953    1315.52001953    1315.52001953    1315.52001953    1315.52001953
      1315.52001953    1315.52001953    1315.52001953    1315.52001953    1315.52001953    1315.52001953    1315.52001953    1315.52001953    1315.52001953    1315.52001953    1315.52001953    1315.52001953    1315.52001953    1315.52001953    1315.52001953    1315.52001953    1315.52001953    1315.52001953    1315.52001953    1315.52001953
      1315.52001953    1315.52001953    1315.52001953    1315.52001953    1315.52001953    1315.52001953    1315.52001953    1315.52001953    1315.52001953    1315.52001953    1315.52001953    1315.52001953    1315.52001953    1315.52001953    1315.52001953    1315.52001953    1315.52001953    1315.52001953    1315.52001953    1315.52001953
      1315.52001953    1315.52001953    1315.52001953    1315.52001953    1315.52001953    1315.52001953    1315.52001953    1315.52001953    1315.52001953    1315.52001953    1315.52001953    1315.52001953    1315.52001953    1315.52001953    1315.52001953    1315.52001953    1315.52001953    1315.52001953    1315.52001953    1315.52001953
      1315.52001953    1315.52001953    1315.52001953    1315.52001953    1315.52001953    1315.52001953    1315.52001953    1315.52001953    1315.52001953    1315.52001953    1315.52001953    1315.52001953    1315.52001953    1315.52001953    1315.52001953    1315.52001953    1315.52001953    1315.52001953    1315.52001953    1315.52001953
      1315.52001953    1315.52001953    1315.52001953    1315.52001953    1315.52001953    1315.52001953    1315.52001953    1315.52001953    1315.52001953    1315.52001953    1315.52001953    1315.52001953    1315.52001953    1315.52001953    1315.52001953    1315.52001953    1315.52001953    1315.52001953    1315.52001953    1315.52001953
      1315.52001953    1315.52001953    1315.52001953    1315.52001953    1315.52001953    1315.52001953    1315.52001953    1315.52001953    1315.52001953    1315.52001953    1315.52001953    1315.52001953    1315.52001953    1315.52001953    1315.52001953    1315.52001953    1315.52001953    1315.52001953    1315.52001953    1315.52001953
      1315.52001953    1315.52001953    1315.52001953    1315.52001953    1315.52001953    1315.52001953    1315.52001953    1315.52001953    1315.52001953    1315.52001953    1315.52001953    1315.52001953    1315.52001953    1315.52001953    1315.52001953    1315.52001953    1315.52001953    1315.52001953    1315.52001953    1315.52001953
      1315.52001953    1315.52001953    1315.52001953    1315.52001953    1315.52001953    1317.29003906    1317.29003906    1317.29003906    1317.29003906    1317.29003906    1317.29003906    1317.29003906    1317.29003906    1317.29003906    1317.29003906    1317.29003906    1317.29003906    1317.29003906    1322.30004883    1331.91003418
      1334.73999023    1300.96997070    1301.68005371    1306.96997070    1312.18005371    1312.18005371    1312.18005371    1312.18005371    1317.78002930    1317.78002930    1317.78002930    1317.78002930    1317.78002930    1317.78002930    1317.78002930    1317.78002930    1317.78002930    1317.78002930    1317.78002930    1317.78002930
      1317.78002930    1317.78002930    1317.78002930    1317.78002930    1317.78002930    1317.78002930    1317.78002930    1317.78002930    1317.78002930    1317.78002930    1317.78002930    1317.78002930    1317.78002930    1317.78002930    1317.78002930    1317.78002930    1317.78002930    1317.78002930    1317.78002930    1317.78002930
      1317.78002930    1317.78002930    1317.78002930    1317.78002930    1317.78002930    1317.78002930    1317.78002930    1317.78002930    1317.78002930    1317.78002930    1317.78002930    1317.78002930    1317.78002930    1317.78002930    1317.78002930    1317.78002930    1317.78002930    1317.78002930    1317.78002930    1317.78002930
      1317.78002930    1317.78002930    1317.78002930    1317.78002930    1317.78002930    1317.78002930    1317.78002930    1317.78002930    1317.78002930    1317.78002930    1317.78002930    1317.78002930    1317.78002930    1317.78002930    1317.78002930    1317.78002930    1317.78002930    1317.78002930    1317.78002930    1317.78002930
      1317.78002930    1317.78002930    1317.78002930    1317.78002930    1317.78002930    1317.78002930    1317.78002930    1317.78002930    1317.78002930    1317.78002930    1317.78002930    1317.78002930    1317.78002930    1317.78002930    1317.78002930    1317.78002930    1317.78002930    1317.78002930    1317.78002930    1317.78002930
      1317.78002930    1317.78002930    1317.78002930    1317.78002930    1317.78002930    1317.78002930    1317.78002930    1317.78002930    1317.78002930    1317.78002930    1317.78002930    1317.78002930    1317.78002930    1317.78002930    1317.78002930    1317.78002930    1317.78002930    1317.78002930    1317.78002930    1317.78002930
      1317.78002930    1317.78002930    1317.78002930    1317.78002930    1317.78002930    1317.78002930    1317.78002930    1317.78002930    1317.78002930    1317.78002930    1317.78002930    1317.78002930    1317.78002930    1317.78002930    1317.78002930    1317.78002930    1317.78002930    1317.78002930    1317.78002930    1317.78002930
      1317.78002930    1317.78002930    1317.78002930    1317.78002930    1317.78002930    1317.78002930    1317.78002930    1317.78002930    1317.78002930    1317.78002930    1317.78002930    1317.78002930    1317.78002930    1317.78002930    1317.78002930    1317.78002930    1317.78002930    1317.78002930    1317.78002930    1317.78002930
      1317.78002930    1317.78002930    1317.78002930    1317.78002930    1317.78002930    1317.78002930    1317.78002930    1317.78002930    1317.78002930    1317.78002930    1317.78002930    1317.78002930    1317.78002930    1317.78002930    1317.78002930    1317.78002930    1317.78002930    1317.78002930    1317.78002930    1317.78002930
      1317.78002930    1317.78002930    1317.78002930    1322.14001465    1322.14001465    1322.14001465    1322.14001465    1322.14001465    1322.14001465    1322.14001465    1322.14001465    1322.14001465    1322.14001465    1322.14001465    1322.14001465    1322.14001465    1322.14001465    1322.14001465    1322.14001465    1322.14001465
      1322.14001465    1322.14001465    1322.14001465    1322.14001465    1322.14001465    1322.14001465    1322.14001465    1322.14001465    1322.14001465    1322.14001465    1322.14001465    1322.14001465    1322.14001465    1322.14001465    1322.14001465    1322.14001465    1322.14001465    1322.14001465    1322.14001465    1322.14001465
      1322.14001465    1322.14001465    1322.14001465    1322.14001465    1322.14001465    1322.14001465    1322.14001465    1322.14001465    1322.14001465    1322.14001465    1322.14001465    1322.14001465    1322.14001465    1322.14001465    1322.14001465    1322.14001465    1322.14001465    1322.14001465    1322.14001465    1322.14001465
      1322.14001465    1322.14001465    1322.14001465    1322.14001465    1322.14001465    1322.14001465    1322.14001465    1322.14001465    1322.14001465    1322.14001465    1322.14001465    1322.14001465    1322.14001465    1322.14001465    1322.14001465    1322.14001465    1322.14001465    1322.14001465    1322.14001465    1322.14001465
      1322.14001465    1322.14001465    1322.14001465    1322.14001465    1322.14001465    1322.14001465    1322.14001465    1322.14001465    1322.14001465    1322.14001465    1322.14001465    1322.14001465    1322.14001465    1322.14001465    1322.14001465    1322.14001465    1322.14001465    1322.14001465    1322.14001465    1322.14001465
      1322.14001465    1322.14001465    1322.14001465    1322.14001465    1322.14001465    1322.14001465    1322.14001465    1322.14001465    1322.14001465    1322.14001465    1322.14001465    1322.14001465    1322.14001465    1322.14001465    1322.14001465    1322.14001465    1322.14001465    1322.14001465    1322.14001465    1322.14001465
      1322.14001465    1322.14001465    1322.14001465    1322.14001465    1322.14001465    1322.14001465    1322.14001465    1322.14001465    1322.14001465    1322.14001465    1322.14001465    1322.14001465    1322.14001465    1322.14001465    1322.14001465    1322.14001465    1322.14001465    1322.14001465    1322.14001465    1322.14001465
      1322.14001465    1322.14001465    1322.14001465    1322.14001465    1322.14001465    1322.14001465    1322.14001465    1322.14001465    1322.14001465    1322.14001465    1322.14001465    1322.14001465    1322.14001465    1322.14001465    1322.14001465    1322.14001465    1322.14001465    1322.14001465    1322.14001465    1322.14001465
      1322.14001465    1322.14001465    1322.14001465    1322.14001465    1322.14001465    1322.14001465    1322.14001465    1322.14001465    1322.14001465    1322.14001465    1322.14001465    1322.14001465    1322.14001465    1322.14001465    1322.14001465    1322.14001465    1322.14001465    1322.14001465    1322.14001465    1322.14001465
      1322.14001465    1322.14001465    1322.14001465    1322.14001465    1322.14001465    1322.14001465    1322.14001465    1322.14001465    1322.14001465    1322.14001465    1322.14001465    1322.14001465    1322.14001465    1322.14001465    1322.14001465    1322.14001465    1322.14001465    1322.14001465    1322.14001465    1322.14001465
      1322.14001465    1322.14001465    1322.14001465    1322.14001465    1322.14001465    1322.14001465    1322.14001465    1322.14001465    1322.14001465    1322.14001465    1322.14001465    1322.14001465    1322.14001465    1322.14001465    1322.14001465    1322.14001465    1322.14001465    1322.14001465    1322.14001465    1322.14001465
      1322.14001465    1322.14001465    1322.14001465    1322.14001465    1322.14001465    1322.14001465    1322.14001465    1322.14001465    1322.14001465    1322.14001465    1322.14001465    1322.14001465    1322.14001465    1322.14001465    1322.14001465    1322.14001465    1322.14001465    1322.14001465    1322.14001465    1322.14001465
      1322.14001465    1322.14001465    1322.14001465    1322.14001465    1322.14001465    1322.14001465    1322.14001465    1322.14001465    1322.14001465    1322.14001465    1322.14001465    1322.14001465    1322.14001465    1322.14001465    1322.14001465    1322.14001465    1322.14001465    1322.14001465    1322.14001465    1322.14001465
      1322.14001465    1322.14001465    1322.14001465    1322.14001465    1322.14001465    1322.14001465    1322.14001465    1322.14001465    1322.14001465    1322.14001465    1322.14001465    1322.14001465    1322.14001465    1322.14001465    1322.14001465    1322.14001465    1322.14001465    1322.14001465    1322.14001465    1322.14001465
      1322.14001465    1322.14001465    1322.14001465    1322.14001465    1322.14001465    1322.14001465    1322.14001465    1322.14001465    1322.14001465    1322.14001465    1322.14001465    1322.14001465    1322.14001465    1322.14001465    1322.14001465    1322.14001465    1322.14001465    1322.14001465    1322.14001465    1322.14001465
      1322.14001465    1322.14001465    1322.14001465    1322.14001465    1322.14001465    1322.14001465    1322.14001465    1322.14001465    1322.14001465    1322.14001465    1322.14001465    1322.14001465    1322.14001465    1322.14001465    1322.14001465    1322.14001465    1322.14001465    1322.14001465    1322.14001465    1322.14001465
      1322.14001465    1322.14001465    1322.14001465    1322.14001465    1322.14001465    1322.14001465    1322.14001465    1322.14001465    1322.14001465    1322.14001465    1322.14001465    1322.14001465    1322.14001465    1322.14001465    1322.14001465    1322.14001465    1322.14001465    1322.14001465    1322.14001465    1322.14001465
      1322.14001465    1322.14001465    1322.14001465    1322.14001465    1322.14001465    1322.14001465    1322.14001465    1322.14001465    1322.14001465    1322.14001465    1322.14001465    1322.14001465    1322.14001465    1322.14001465    1322.14001465    1322.14001465    1322.14001465    1322.14001465    1322.14001465    1322.14001465