# File generated by Flopy version 3.5.0.dev0 on 07/29/2024 at 12:54:12.
BEGIN options
  BUDGET  FILEOUT  flow.cbb
  BUDGETCSV  FILEOUT  budget.csv
  HEAD  FILEOUT  flow.hds
END options

BEGIN period  1
  SAVE  head  all
  SAVE  budget  all
  print budget all
END period  1

