# File generated by Flopy version 3.5.0.dev0 on 07/29/2024 at 12:54:12.
BEGIN options
  TIME_UNITS  days
  START_DATE_TIME  1/1/2006
END options

BEGIN dimensions
  NPER  1
END dimensions

BEGIN perioddata
     31.00000000  1       1.0
END perioddata

