# File generated by Flopy version 3.5.0.dev0 on 08/19/2024 at 16:37:31.
BEGIN options
END options

BEGIN continuous  FILEOUT  drn_obs.csv
  rv+_12_77  drn  12 77
  rv+_12_78  drn  12 78
  rv+_12_80  drn  12 80
  rv_12_82  drn  12 82
  dec+_11_83  drn  11 83
  rv_12_83  drn  12 83
  rv+_13_84  drn  13 84
  rv+_13_86  drn  13 86
  rv+_13_87  drn  13 87
  rv+_11_89  drn  11 89
  rv+_11_91  drn  11 91
  dec+_12_96  drn  12 96
  dec+_12_97  drn  12 97
  dec+_12_100  drn  12 100
  dec+_12_106  drn  12 106
  dec+_11_108  drn  11 108
  dec_12_108  drn  12 108
  dec+_13_111  drn  13 111
  dec+_13_113  drn  13 113
  dec+_11_114  drn  11 114
  dec+_11_116  drn  11 116
  dec+_13_118  drn  13 118
  dec+_13_120  drn  13 120
  dec_14_120  drn  14 120
  rv_13_138  drn  13 138
  rv+_13_141  drn  13 141
  rv_14_142  drn  14 142
  rv+_14_144  drn  14 144
  rv+_11_152  drn  11 152
  dec+_11_153  drn  11 153
  dec_14_153  drn  14 153
  dec+_10_154  drn  10 154
  rv+_14_154  drn  14 154
  dec+_10_155  drn  10 155
  dec+_14_155  drn  14 155
  dec_14_156  drn  14 156
  rv+_10_160  drn  10 160
  rv+_14_160  drn  14 160
  dec+_10_161  drn  10 161
  dec+_14_161  drn  14 161
  rv+_10_163  drn  10 163
  rv_14_163  drn  14 163
  rv_15_163  drn  15 163
  dec_14_164  drn  14 164
  dec+_10_166  drn  10 166
  dec_14_166  drn  14 166
  dec+_15_166  drn  15 166
  rv+_10_173  drn  10 173
  rv+_15_173  drn  15 173
  rv_9_175  drn  9 175
  rv+_15_175  drn  15 175
  dec_9_176  drn  9 176
  dec+_10_176  drn  10 176
  dec+_15_176  drn  15 176
  dec+_9_178  drn  9 178
  dec+_15_178  drn  15 178
  dec_9_179  drn  9 179
  rv+_9_181  drn  9 181
  rv+_15_181  drn  15 181
  dec+_9_182  drn  9 182
  dec+_15_182  drn  15 182
  rv+_9_183  drn  9 183
  rv_15_183  drn  15 183
  rv_16_183  drn  16 183
  dec+_9_184  drn  9 184
  dec+_16_184  drn  16 184
  rv+_9_194  drn  9 194
  rv+_16_194  drn  16 194
  dec+_8_195  drn  8 195
  dec_9_195  drn  9 195
  dec+_16_195  drn  16 195
  rv+_8_197  drn  8 197
  dec+_16_197  drn  16 197
  rv+_8_200  drn  8 200
  rv+_16_200  drn  16 200
  rv+_8_202  drn  8 202
  rv_17_202  drn  17 202
  dec_16_203  drn  16 203
  dec+_8_205  drn  8 205
  dec+_16_205  drn  16 205
  dec+_8_208  drn  8 208
  dec+_16_208  drn  16 208
  dec_17_208  drn  17 208
  dec+_8_210  drn  8 210
  dec+_17_210  drn  17 210
  dec_17_211  drn  17 211
  rv_7_217  drn  7 217
  rv+_8_217  drn  8 217
  rv+_17_217  drn  17 217
  dec+_7_218  drn  7 218
  dec_8_218  drn  8 218
  dec+_17_218  drn  17 218
  rv+_7_219  drn  7 219
  rv+_17_219  drn  17 219
  dec+_7_220  drn  7 220
  dec+_17_220  drn  17 220
  rv+_7_222  drn  7 222
  rv+_17_222  drn  17 222
  dec+_7_223  drn  7 223
  dec+_17_223  drn  17 223
  rv+_7_225  drn  7 225
  rv+_18_225  drn  18 225
  dec_7_226  drn  7 226
  dec+_7_228  drn  7 228
  dec+_18_228  drn  18 228
  dec+_6_288  drn  6 288
  rv_7_288  drn  7 288
  rv+_18_288  drn  18 288
  rv+_6_290  drn  6 290
  rv+_18_290  drn  18 290
  dec+_6_291  drn  6 291
  dec+_18_291  drn  18 291
  dec+_6_293  drn  6 293
  dec+_18_293  drn  18 293
  rv+_6_296  drn  6 296
  rv+_18_296  drn  18 296
  rv_19_296  drn  19 296
  dec+_6_297  drn  6 297
  dec_18_297  drn  18 297
  dec+_19_297  drn  19 297
  rv+_6_298  drn  6 298
  rv+_19_298  drn  19 298
  dec_5_299  drn  5 299
  dec_6_299  drn  6 299
  dec+_19_299  drn  19 299
  rv+_5_302  drn  5 302
  rv+_19_302  drn  19 302
  dec+_5_303  drn  5 303
  dec+_19_303  drn  19 303
  rv+_5_305  drn  5 305
  rv+_19_305  drn  19 305
  rv+_5_308  drn  5 308
  rv_19_308  drn  19 308
  rv+_20_308  drn  20 308
  rv+_5_310  drn  5 310
  rv+_20_310  drn  20 310
  dec_19_336  drn  19 336
  dec+_5_338  drn  5 338
  dec+_19_338  drn  19 338
  dec+_5_344  drn  5 344
  dec_19_344  drn  19 344
  dec_20_344  drn  20 344
  dec+_4_346  drn  4 346
  dec+_5_346  drn  5 346
  dec+_20_346  drn  20 346
  rv+_4_390  drn  4 390
  dec+_20_390  drn  20 390
  dec+_4_391  drn  4 391
  dec+_20_391  drn  20 391
  rv+_4_392  drn  4 392
  rv+_20_392  drn  20 392
  dec+_4_393  drn  4 393
  dec+_20_393  drn  20 393
  rv_4_395  drn  4 395
  rv_20_395  drn  20 395
  rv_21_395  drn  21 395
  dec+_4_396  drn  4 396
  dec+_21_396  drn  21 396
  rv_3_398  drn  3 398
  rv_4_398  drn  4 398
  rv+_21_398  drn  21 398
  dec+_3_401  drn  3 401
  dec+_21_401  drn  21 401
  rv+_3_408  drn  3 408
  rv+_21_408  drn  21 408
  rv+_3_410  drn  3 410
  rv+_21_410  drn  21 410
  dec+_3_411  drn  3 411
  dec+_21_411  drn  21 411
  dec+_3_413  drn  3 413
  dec+_21_413  drn  21 413
  dec_22_413  drn  22 413
  dec_22_414  drn  22 414
  rv+_3_416  drn  3 416
  rv+_22_416  drn  22 416
  dec+_3_417  drn  3 417
  dec+_22_417  drn  22 417
  dec+_3_418  drn  3 418
  rv+_22_418  drn  22 418
  dec+_3_419  drn  3 419
  dec+_22_419  drn  22 419
  rv+_3_445  drn  3 445
  dec+_22_445  drn  22 445
  dec+_3_446  drn  3 446
  dec+_22_446  drn  22 446
  rv+_3_448  drn  3 448
  rv+_22_448  drn  22 448
  rv+_3_451  drn  3 451
  rv+_23_451  drn  23 451
  rv+_3_453  drn  3 453
  rv+_23_453  drn  23 453
  dec+_3_456  drn  3 456
  dec+_22_456  drn  22 456
  dec_23_456  drn  23 456
  dec+_3_459  drn  3 459
  dec+_23_459  drn  23 459
  dec+_3_461  drn  3 461
  dec+_23_461  drn  23 461
  rv+_3_468  drn  3 468
  rv+_23_468  drn  23 468
  dec+_3_469  drn  3 469
  dec+_23_469  drn  23 469
  rv+_3_470  drn  3 470
  rv_23_470  drn  23 470
  rv_24_470  drn  24 470
  dec+_3_471  drn  3 471
  dec_23_471  drn  23 471
  dec+_24_471  drn  24 471
  rv+_3_473  drn  3 473
  rv+_24_473  drn  24 473
  dec+_2_474  drn  2 474
  dec+_3_474  drn  3 474
  dec+_24_474  drn  24 474
  rv+_2_476  drn  2 476
  dec+_24_476  drn  24 476
  dec+_2_479  drn  2 479
  dec+_24_479  drn  24 479
  rv+_2_508  drn  2 508
  rv+_24_508  drn  24 508
  rv_2_510  drn  2 510
  rv+_24_510  drn  24 510
  rv_25_510  drn  25 510
  dec+_2_511  drn  2 511
  dec+_24_511  drn  24 511
  dec+_2_513  drn  2 513
  dec+_25_513  drn  25 513
  rv+_25_515  drn  25 515
  rv_1_516  drn  1 516
  rv+_2_516  drn  2 516
  dec+_25_516  drn  25 516
  dec_1_517  drn  1 517
  dec_2_517  drn  2 517
  rv+_1_518  drn  1 518
  dec+_25_518  drn  25 518
  dec+_1_519  drn  1 519
  rv+_25_521  drn  25 521
  rv_26_521  drn  26 521
  rv+_1_522  drn  1 522
  dec+_25_522  drn  25 522
  dec+_1_523  drn  1 523
  dec+_26_524  drn  26 524
  rv+_1_525  drn  1 525
  dec+_26_526  drn  26 526
  dec+_26_527  drn  26 527
  dec+_1_528  drn  1 528
  dec+_26_529  drn  26 529
  rv+_1_530  drn  1 530
  vd+_26_530  drn  26 530
  dec+_1_550  drn  1 550
  dec+_1_553  drn  1 553
  dec+_1_555  drn  1 555
  pm+_26_555  drn  26 555
  pm+_26_556  drn  26 556
  hl+_40_560  drn  40 560
  vd+_26_562  drn  26 562
  vd+_27_563  drn  27 563
  hl+_40_563  drn  40 563
  vd_26_564  drn  26 564
  vd+_27_564  drn  27 564
  hl+_40_564  drn  40 564
  ramp+_31_626  drn  31 626
  ramp+_31_627  drn  31 627
  ramp+_22_628  drn  22 628
  ramp_24_628  drn  24 628
  ramp_31_628  drn  31 628
  ramp+_33_628  drn  33 628
  ramp+_35_628  drn  35 628
  ramp+_37_628  drn  37 628
  ramp_41_628  drn  41 628
  ramp+_43_628  drn  43 628
  ramp_39_629  drn  39 629
  ramp+_41_629  drn  41 629
  ramp+_39_630  drn  39 630
  ramp+_41_630  drn  41 630
  ramp+_20_631  drn  20 631
  ramp+_22_631  drn  22 631
  ramp_24_631  drn  24 631
  ramp+_31_631  drn  31 631
  ramp+_33_631  drn  33 631
  ramp+_35_631  drn  35 631
  ramp+_37_631  drn  37 631
  ramp+_39_631  drn  39 631
  ramp+_41_631  drn  41 631
  ramp+_43_631  drn  43 631
  ramp+_20_632  drn  20 632
  ramp+_22_632  drn  22 632
  ramp_31_632  drn  31 632
  ramp+_33_632  drn  33 632
  ramp_35_632  drn  35 632
  ramp_37_632  drn  37 632
  ramp_41_632  drn  41 632
  od_27_655  drn  27 655
  od_32_655  drn  32 655
  od_39_655  drn  39 655
  od_35_664  drn  35 664
  od_41_664  drn  41 664
  od_33_665  drn  33 665
  od_36_665  drn  36 665
  od+_42_665  drn  42 665
  od+_32_666  drn  32 666
  od_35_666  drn  35 666
  od_36_666  drn  36 666
  od+_41_666  drn  41 666
  od+_29_667  drn  29 667
  od_30_667  drn  30 667
  od+_34_667  drn  34 667
  od+_40_667  drn  40 667
  od+_27_668  drn  27 668
  od+_28_668  drn  28 668
  od+_33_668  drn  33 668
  od+_46_668  drn  46 668
  od+_30_669  drn  30 669
  od+_35_669  drn  35 669
  od_41_669  drn  41 669
  od+_28_670  drn  28 670
  od+_29_670  drn  29 670
  od_30_670  drn  30 670
  od+_34_670  drn  34 670
  od+_40_670  drn  40 670
  od+_34_671  drn  34 671
  od+_37_671  drn  37 671
  od+_43_671  drn  43 671
  od_32_672  drn  32 672
  od+_33_672  drn  33 672
  od+_36_672  drn  36 672
  od+_42_672  drn  42 672
  od+_35_673  drn  35 673
  od+_38_673  drn  38 673
  od+_43_673  drn  43 673
  od_33_674  drn  33 674
  la+_34_674  drn  34 674
  od+_37_674  drn  37 674
  od_42_674  drn  42 674
  od+_43_674  drn  43 674
  od+_32_675  drn  32 675
  od+_35_675  drn  35 675
  od_36_675  drn  36 675
  od+_41_675  drn  41 675
  od_29_676  drn  29 676
  la+_30_676  drn  30 676
  la+_32_676  drn  32 676
  la+_33_676  drn  33 676
  la+_34_676  drn  34 676
  od+_35_676  drn  35 676
  od_40_676  drn  40 676
  la_42_676  drn  42 676
  la+_32_677  drn  32 677
  la+_33_677  drn  33 677
  la+_34_677  drn  34 677
  od+_36_677  drn  36 677
  la+_42_677  drn  42 677
  od_30_678  drn  30 678
  la+_32_678  drn  32 678
  la_34_678  drn  34 678
  la+_35_678  drn  35 678
  la+_36_678  drn  36 678
  la+_37_678  drn  37 678
  la+_41_678  drn  41 678
  la_42_678  drn  42 678
  la+_43_678  drn  43 678
  ramp_30_684  drn  30 684
  ramp_31_684  drn  31 684
  ramp+_26_686  drn  26 686
  ramp+_30_686  drn  30 686
  ramp+_45_686  drn  45 686
  od_25_689  drn  25 689
  od_26_689  drn  26 689
  od_32_689  drn  32 689
  od_38_689  drn  38 689
  od_44_689  drn  44 689
  od_45_689  drn  45 689
  od+_24_690  drn  24 690
  od_25_690  drn  25 690
  op+_31_690  drn  31 690
  op_32_690  drn  32 690
  op_33_690  drn  33 690
  od+_37_690  drn  37 690
  od_38_690  drn  38 690
  od+_43_690  drn  43 690
  od_21_691  drn  21 691
  od+_22_691  drn  22 691
  ramp+_28_691  drn  28 691
  od_34_691  drn  34 691
  od+_35_691  drn  35 691
  od_38_691  drn  38 691
  od_42_691  drn  42 691
  od_20_692  drn  20 692
  od+_21_692  drn  21 692
  ramp+_26_692  drn  26 692
  ramp+_28_692  drn  28 692
  ramp+_30_692  drn  30 692
  od+_32_692  drn  32 692
  od_33_692  drn  33 692
  op+_35_692  drn  35 692
  op+_36_692  drn  36 692
  op_37_692  drn  37 692
  op+_38_692  drn  38 692
  od+_41_692  drn  41 692
  ramp+_45_692  drn  45 692
  od+_23_693  drn  23 693
  od_24_693  drn  24 693
  ramp+_28_693  drn  28 693
  ramp+_30_693  drn  30 693
  od+_35_693  drn  35 693
  od+_36_693  drn  36 693
  od_37_693  drn  37 693
  od+_38_693  drn  38 693
  od+_42_693  drn  42 693
  od_43_693  drn  43 693
  od+_22_694  drn  22 694
  od+_23_694  drn  23 694
  la+_32_694  drn  32 694
  la+_33_694  drn  33 694
  od+_34_694  drn  34 694
  od+_35_694  drn  35 694
  op+_37_694  drn  37 694
  op+_38_694  drn  38 694
  la+_39_694  drn  39 694
  od+_41_694  drn  41 694
  od+_42_694  drn  42 694
  f-370_45_694  drn  45 694
  ramp_24_695  drn  24 695
  ramp_26_695  drn  26 695
  ramp+_43_695  drn  43 695
  ramp+_45_695  drn  45 695
  ramp+_22_696  drn  22 696
  ramp+_24_696  drn  24 696
  ramp+_33_696  drn  33 696
  ramp+_35_696  drn  35 696
  ramp+_37_696  drn  37 696
  ramp_41_696  drn  41 696
  ramp_43_696  drn  43 696
  ramp+_45_696  drn  45 696
  ramp+_24_697  drn  24 697
  ramp+_26_697  drn  26 697
  ramp+_43_697  drn  43 697
  ramp+_22_698  drn  22 698
  ramp_24_698  drn  24 698
  ramp+_26_698  drn  26 698
  la+_31_698  drn  31 698
  ramp_33_698  drn  33 698
  ramp+_35_698  drn  35 698
  ramp+_37_698  drn  37 698
  ramp+_43_698  drn  43 698
  ramp_45_698  drn  45 698
  ramp+_20_699  drn  20 699
  ramp+_24_699  drn  24 699
  la+_31_699  drn  31 699
  ramp+_39_699  drn  39 699
  ramp+_41_699  drn  41 699
  ramp_43_699  drn  43 699
  ramp+_22_700  drn  22 700
  ramp_23_700  drn  23 700
  ramp+_24_700  drn  24 700
  la+_31_700  drn  31 700
  ramp_32_700  drn  32 700
  ramp_33_700  drn  33 700
  ramp_35_700  drn  35 700
  la+_36_700  drn  36 700
  ramp_37_700  drn  37 700
  la+_38_700  drn  38 700
  la_40_700  drn  40 700
  la_42_700  drn  42 700
  ramp+_43_700  drn  43 700
  la+_20_701  drn  20 701
  ramp_22_701  drn  22 701
  la+_23_701  drn  23 701
  la_31_701  drn  31 701
  ramp+_33_701  drn  33 701
  la_34_701  drn  34 701
  la_36_701  drn  36 701
  la_38_701  drn  38 701
  la+_39_701  drn  39 701
  la_40_701  drn  40 701
  la+_41_701  drn  41 701
  la+_42_701  drn  42 701
  la+_44_701  drn  44 701
  ramp+_45_701  drn  45 701
  la+_21_702  drn  21 702
  la+_23_702  drn  23 702
  ramp_24_702  drn  24 702
  ramp+_25_702  drn  25 702
  la+_34_702  drn  34 702
  la+_36_702  drn  36 702
  la+_38_702  drn  38 702
  dse+_40_702  drn  40 702
  la+_42_702  drn  42 702
  la+_44_702  drn  44 702
  od+_20_703  drn  20 703
  op+_22_703  drn  22 703
  op+_23_703  drn  23 703
  op+_24_703  drn  24 703
  op_25_703  drn  25 703
  ramp+_28_703  drn  28 703
  la+_32_703  drn  32 703
  op+_33_703  drn  33 703
  op+_34_703  drn  34 703
  op+_35_703  drn  35 703
  la_39_703  drn  39 703
  od+_40_703  drn  40 703
  ramp+_45_703  drn  45 703
  la+_20_704  drn  20 704
  la+_21_704  drn  21 704
  la+_22_704  drn  22 704
  la+_23_704  drn  23 704
  la+_24_704  drn  24 704
  la_25_704  drn  25 704
  ramp+_27_704  drn  27 704
  la+_31_704  drn  31 704
  la+_33_704  drn  33 704
  la_34_704  drn  34 704
  la_35_704  drn  35 704
  la_37_704  drn  37 704
  la_38_704  drn  38 704
  la+_39_704  drn  39 704
  la+_40_704  drn  40 704
  la_41_704  drn  41 704
  la+_42_704  drn  42 704
  la+_43_704  drn  43 704
  la+_44_704  drn  44 704
  ramp+_45_704  drn  45 704
  od+_20_705  drn  20 705
  la+_21_705  drn  21 705
  la+_22_705  drn  22 705
  la+_23_705  drn  23 705
  la+_24_705  drn  24 705
  la+_25_705  drn  25 705
  la+_26_705  drn  26 705
  ramp_28_705  drn  28 705
  ramp+_29_705  drn  29 705
  la+_32_705  drn  32 705
  la+_33_705  drn  33 705
  la+_34_705  drn  34 705
  la+_35_705  drn  35 705
  op+_36_705  drn  36 705
  la+_37_705  drn  37 705
  la+_38_705  drn  38 705
  la+_39_705  drn  39 705
  la+_40_705  drn  40 705
  la+_41_705  drn  41 705
  la+_42_705  drn  42 705
  la+_43_705  drn  43 705
  la+_44_705  drn  44 705
  la+_45_705  drn  45 705
  la+_20_706  drn  20 706
  la+_21_706  drn  21 706
  la+_22_706  drn  22 706
  la_23_706  drn  23 706
  la+_24_706  drn  24 706
  la+_25_706  drn  25 706
  la+_27_706  drn  27 706
  la_33_706  drn  33 706
  la+_34_706  drn  34 706
  la+_35_706  drn  35 706
  la+_36_706  drn  36 706
  la+_37_706  drn  37 706
  la+_38_706  drn  38 706
  la+_40_706  drn  40 706
  la+_41_706  drn  41 706
  la+_42_706  drn  42 706
  la+_43_706  drn  43 706
  la+_44_706  drn  44 706
  op+_45_706  drn  45 706
  la+_20_707  drn  20 707
  la+_21_707  drn  21 707
  la+_22_707  drn  22 707
  la+_23_707  drn  23 707
  la+_25_707  drn  25 707
  ramp_27_707  drn  27 707
  ramp_32_707  drn  32 707
  la+_33_707  drn  33 707
  la+_34_707  drn  34 707
  la+_35_707  drn  35 707
  la+_36_707  drn  36 707
  la+_37_707  drn  37 707
  la+_38_707  drn  38 707
  ramp_39_707  drn  39 707
  la+_40_707  drn  40 707
  la+_41_707  drn  41 707
  la+_42_707  drn  42 707
  la_44_707  drn  44 707
  ramp_45_707  drn  45 707
  la_21_708  drn  21 708
  sh+_25_708  drn  25 708
  ramp_32_708  drn  32 708
  dse+_40_708  drn  40 708
  ramp+_44_708  drn  44 708
  ramp+_23_709  drn  23 709
  ramp_27_709  drn  27 709
  ramp_34_709  drn  34 709
  ramp_36_709  drn  36 709
  ramp_38_709  drn  38 709
  ramp+_42_709  drn  42 709
  vd+_20_710  drn  20 710
  ramp+_21_710  drn  21 710
  ramp+_23_710  drn  23 710
  sh+_25_710  drn  25 710
  ramp+_32_710  drn  32 710
  ramp+_34_710  drn  34 710
  ramp+_36_710  drn  36 710
  ramp+_38_710  drn  38 710
  ramp+_42_710  drn  42 710
  ramp+_44_710  drn  44 710
  od+_26_711  drn  26 711
  od+_27_711  drn  27 711
  od+_32_711  drn  32 711
  od_33_711  drn  33 711
  op+_36_711  drn  36 711
  op+_37_711  drn  37 711
  od+_39_711  drn  39 711
  od+_45_711  drn  45 711
  od+_25_712  drn  25 712
  od_26_712  drn  26 712
  op+_31_712  drn  31 712
  la_32_712  drn  32 712
  op+_33_712  drn  33 712
  op+_34_712  drn  34 712
  op+_35_712  drn  35 712
  op+_36_712  drn  36 712
  od+_38_712  drn  38 712
  od+_44_712  drn  44 712
  od+_27_713  drn  27 713
  od+_28_713  drn  28 713
  la_32_713  drn  32 713
  la+_33_713  drn  33 713
  op+_37_713  drn  37 713
  op+_38_713  drn  38 713
  od+_39_713  drn  39 713
  od+_46_713  drn  46 713
  od+_26_714  drn  26 714
  la+_27_714  drn  27 714
  la+_30_714  drn  30 714
  la+_31_714  drn  31 714
  od+_32_714  drn  32 714
  la+_33_714  drn  33 714
  la+_34_714  drn  34 714
  op+_35_714  drn  35 714
  op+_36_714  drn  36 714
  op+_37_714  drn  37 714
  op+_38_714  drn  38 714
  la+_39_714  drn  39 714
  la+_40_714  drn  40 714
  la+_41_714  drn  41 714
  la+_42_714  drn  42 714
  od+_45_714  drn  45 714
  od_46_714  drn  46 714
  od+_24_715  drn  24 715
  od+_25_715  drn  25 715
  ramp+_28_715  drn  28 715
  ramp+_30_715  drn  30 715
  la+_32_715  drn  32 715
  la+_33_715  drn  33 715
  od+_36_715  drn  36 715
  od+_37_715  drn  37 715
  od_38_715  drn  38 715
  la+_39_715  drn  39 715
  la+_40_715  drn  40 715
  od+_43_715  drn  43 715
  od_44_715  drn  44 715
  od_23_716  drn  23 716
  la+_24_716  drn  24 716
  la+_25_716  drn  25 716
  la+_26_716  drn  26 716
  la+_27_716  drn  27 716
  ramp+_28_716  drn  28 716
  vd+_30_716  drn  30 716
  la_32_716  drn  32 716
  la+_33_716  drn  33 716
  la+_34_716  drn  34 716
  la+_35_716  drn  35 716
  od+_36_716  drn  36 716
  la+_37_716  drn  37 716
  la+_38_716  drn  38 716
  la+_39_716  drn  39 716
  la+_40_716  drn  40 716
  la+_41_716  drn  41 716
  la+_42_716  drn  42 716
  la+_43_716  drn  43 716
  la+_44_716  drn  44 716
  f-370+_45_716  drn  45 716
  la+_46_716  drn  46 716
  la+_25_717  drn  25 717
  la+_26_717  drn  26 717
  la+_27_717  drn  27 717
  la+_28_717  drn  28 717
  la+_29_717  drn  29 717
  la+_30_717  drn  30 717
  la_33_717  drn  33 717
  la+_34_717  drn  34 717
  la+_35_717  drn  35 717
  la_36_717  drn  36 717
  la+_37_717  drn  37 717
  la+_38_717  drn  38 717
  la_39_717  drn  39 717
  la+_40_717  drn  40 717
  la+_41_717  drn  41 717
  la+_42_717  drn  42 717
  la+_43_717  drn  43 717
  la+_44_717  drn  44 717
  la+_45_717  drn  45 717
  la+_46_717  drn  46 717
  od_24_718  drn  24 718
  la+_25_718  drn  25 718
  la+_26_718  drn  26 718
  la+_27_718  drn  27 718
  la+_28_718  drn  28 718
  la+_29_718  drn  29 718
  op+_30_718  drn  30 718
  la+_35_718  drn  35 718
  la+_36_718  drn  36 718
  la+_37_718  drn  37 718
  la+_38_718  drn  38 718
  od+_39_718  drn  39 718
  od_40_718  drn  40 718
  la+_43_718  drn  43 718
  la+_44_718  drn  44 718
  la+_45_718  drn  45 718
  la+_46_718  drn  46 718
  od+_28_719  drn  28 719
  la+_29_719  drn  29 719
  la+_30_719  drn  30 719
  la+_32_719  drn  32 719
  la+_33_719  drn  33 719
  la+_34_719  drn  34 719
  la+_35_719  drn  35 719
  la_37_719  drn  37 719
  od+_40_719  drn  40 719
  la+_41_719  drn  41 719
  la+_42_719  drn  42 719
  la_43_719  drn  43 719
  la+_27_720  drn  27 720
  la+_28_720  drn  28 720
  la+_29_720  drn  29 720
  od+_33_720  drn  33 720
  la+_35_720  drn  35 720
  la+_36_720  drn  36 720
  la+_37_720  drn  37 720
  la+_38_720  drn  38 720
  la+_40_720  drn  40 720
  la+_41_720  drn  41 720
  la_42_720  drn  42 720
  la+_43_720  drn  43 720
  la+_46_720  drn  46 720
  od+_29_721  drn  29 721
  od+_30_721  drn  30 721
  od_34_721  drn  34 721
  la+_35_721  drn  35 721
  la+_36_721  drn  36 721
  la+_37_721  drn  37 721
  la+_38_721  drn  38 721
  od+_41_721  drn  41 721
  la+_43_721  drn  43 721
  od+_27_722  drn  27 722
  od+_28_722  drn  28 722
  od_33_722  drn  33 722
  od+_34_722  drn  34 722
  la_36_722  drn  36 722
  la_38_722  drn  38 722
  od+_40_722  drn  40 722
  la+_26_723  drn  26 723
  la_28_723  drn  28 723
  ramp+_29_723  drn  29 723
  od+_32_723  drn  32 723
  la+_36_723  drn  36 723
  la_38_723  drn  38 723
  od+_39_723  drn  39 723
  od+_45_723  drn  45 723
  la+_46_723  drn  46 723
  od+_25_724  drn  25 724
  od_26_724  drn  26 724
  ramp+_29_724  drn  29 724
  od+_38_724  drn  38 724
  od+_39_724  drn  39 724
  od+_40_724  drn  40 724
  od+_44_724  drn  44 724
  od_45_724  drn  45 724
  od+_27_725  drn  27 725
  od+_33_725  drn  33 725
  od+_40_725  drn  40 725
  od+_46_725  drn  46 725
  od+_26_726  drn  26 726
  ramp_29_726  drn  29 726
  od+_39_726  drn  39 726
  od_40_726  drn  40 726
  od+_45_726  drn  45 726
  od+_46_726  drn  46 726
  od+_22_727  drn  22 727
  la+_23_727  drn  23 727
  la_24_727  drn  24 727
  la+_25_727  drn  25 727
  la+_26_727  drn  26 727
  la+_27_727  drn  27 727
  la+_29_727  drn  29 727
  od+_32_727  drn  32 727
  od+_33_727  drn  33 727
  la+_34_727  drn  34 727
  la+_35_727  drn  35 727
  la+_36_727  drn  36 727
  la+_37_727  drn  37 727
  la+_38_727  drn  38 727
  la+_41_727  drn  41 727
  la+_42_727  drn  42 727
  la+_43_727  drn  43 727
  la_44_727  drn  44 727
  la+_45_727  drn  45 727
  od+_20_728  drn  20 728
  od+_21_728  drn  21 728
  od+_22_728  drn  22 728
  ramp+_25_728  drn  25 728
  ramp+_27_728  drn  27 728
  od+_32_728  drn  32 728
  od+_40_728  drn  40 728
  od+_41_728  drn  41 728
  ramp+_44_728  drn  44 728
  od+_23_729  drn  23 729
  od+_24_729  drn  24 729
  ramp+_27_729  drn  27 729
  ramp+_29_729  drn  29 729
  vd+_30_729  drn  30 729
  od+_34_729  drn  34 729
  od+_35_729  drn  35 729
  od_37_729  drn  37 729
  od+_38_729  drn  38 729
  od_39_729  drn  39 729
  od+_42_729  drn  42 729
  od_43_729  drn  43 729
  od+_21_730  drn  21 730
  od+_22_730  drn  22 730
  od_23_730  drn  23 730
  ramp+_27_730  drn  27 730
  od+_33_730  drn  33 730
  od+_34_730  drn  34 730
  od_35_730  drn  35 730
  od_38_730  drn  38 730
  od+_41_730  drn  41 730
  od+_42_730  drn  42 730
  od+_20_731  drn  20 731
  ramp+_25_731  drn  25 731
  ramp_27_731  drn  27 731
  od_40_731  drn  40 731
  ramp+_44_731  drn  44 731
  ramp_25_732  drn  25 732
  ramp+_44_732  drn  44 732
  od_32_733  drn  32 733
  od+_24_735  drn  24 735
  ramp+_29_735  drn  29 735
  od+_37_735  drn  37 735
  od+_38_735  drn  38 735
  od+_39_735  drn  39 735
  od+_43_735  drn  43 735
  od_44_735  drn  44 735
  od+_23_736  drn  23 736
  vd+_30_736  drn  30 736
  od_35_736  drn  35 736
  od+_37_736  drn  37 736
  od_38_736  drn  38 736
  od_39_736  drn  39 736
  od_42_736  drn  42 736
  od_43_736  drn  43 736
  od+_25_737  drn  25 737
  od+_38_737  drn  38 737
  od_39_737  drn  39 737
  od+_44_737  drn  44 737
  od_45_737  drn  45 737
  od_24_738  drn  24 738
  vd+_30_739  drn  30 739
  vd+_30_741  drn  30 741
  vd+_30_742  drn  30 742
  ramp+_39_753  drn  39 753
  ramp+_20_755  drn  20 755
  ramp+_39_755  drn  39 755
  ramp+_41_755  drn  41 755
  ramp_40_756  drn  40 756
  la+_21_769  drn  21 769
  ramp+_32_769  drn  32 769
  la+_34_769  drn  34 769
  ramp_36_769  drn  36 769
  ramp_38_769  drn  38 769
  la+_40_769  drn  40 769
  la+_42_769  drn  42 769
  la+_40_770  drn  40 770
  la+_21_771  drn  21 771
  ramp+_23_771  drn  23 771
  ramp+_32_771  drn  32 771
  ramp+_34_771  drn  34 771
  ramp+_36_771  drn  36 771
  ramp+_38_771  drn  38 771
  ramp+_42_771  drn  42 771
  ramp_21_772  drn  21 772
  ramp+_32_772  drn  32 772
  ramp+_40_772  drn  40 772
  ramp_21_777  drn  21 777
  ramp+_23_777  drn  23 777
  vd+_25_777  drn  25 777
  ramp_32_777  drn  32 777
  ramp+_34_777  drn  34 777
  ramp+_36_777  drn  36 777
  ramp+_38_777  drn  38 777
  dse+_40_777  drn  40 777
  ramp+_42_777  drn  42 777
  ramp+_21_778  drn  21 778
  ramp+_32_778  drn  32 778
  ramp_34_778  drn  34 778
  ramp_36_778  drn  36 778
  ramp+_40_778  drn  40 778
  ramp+_21_779  drn  21 779
  ramp+_23_779  drn  23 779
  vd+_25_779  drn  25 779
  ramp+_32_779  drn  32 779
  ramp+_34_779  drn  34 779
  ramp+_36_779  drn  36 779
  ramp+_38_779  drn  38 779
  dse+_40_779  drn  40 779
  ramp_42_779  drn  42 779
  vd+_25_780  drn  25 780
  dse_40_780  drn  40 780
  vd+_20_798  drn  20 798
  vd_44_798  drn  44 798
  vd+_25_799  drn  25 799
  dse+_40_799  drn  40 799
  vd+_20_800  drn  20 800
  vd+_44_800  drn  44 800
  vd+_20_801  drn  20 801
  vd+_25_801  drn  25 801
  vd+_44_801  drn  44 801
  dse+_40_804  drn  40 804
  vd+_20_807  drn  20 807
  vd+_25_807  drn  25 807
  vd+_44_807  drn  44 807
  vd_25_808  drn  25 808
  vd+_25_809  drn  25 809
  vd+_20_810  drn  20 810
  vd+_25_810  drn  25 810
  dse+_40_810  drn  40 810
  vd+_44_810  drn  44 810
  vd_44_816  drn  44 816
  od_38_832  drn  38 832
  od_34_833  drn  34 833
  od+_35_833  drn  35 833
  od_37_833  drn  37 833
  od+_38_833  drn  38 833
  od+_43_833  drn  43 833
  od+_35_835  drn  35 835
  od+_38_835  drn  38 835
  od+_33_836  drn  33 836
  od+_34_836  drn  34 836
  la+_35_836  drn  35 836
  la+_37_836  drn  37 836
  od_42_836  drn  42 836
  la+_43_836  drn  43 836
  od+_32_837  drn  32 837
  la_35_837  drn  35 837
  la+_36_837  drn  36 837
  la_37_837  drn  37 837
  la+_38_837  drn  38 837
  od+_42_837  drn  42 837
  la_43_837  drn  43 837
  od+_34_838  drn  34 838
  la+_35_838  drn  35 838
  od+_37_838  drn  37 838
  la+_38_838  drn  38 838
  od_43_838  drn  43 838
  od+_32_839  drn  32 839
  od+_33_839  drn  33 839
  od+_37_839  drn  37 839
  la_38_839  drn  38 839
  od_42_839  drn  42 839
  od+_43_839  drn  43 839
  od+_33_845  drn  33 845
  od+_37_845  drn  37 845
  vd_26_875  drn  26 875
  vd+_26_876  drn  26 876
  od+_30_877  drn  30 877
  od+_35_877  drn  35 877
  la_38_877  drn  38 877
  od+_42_877  drn  42 877
  od_28_878  drn  28 878
  od+_29_878  drn  29 878
  od_34_878  drn  34 878
  od+_35_878  drn  35 878
  od+_41_878  drn  41 878
  od_42_878  drn  42 878
  od+_32_879  drn  32 879
  od+_36_879  drn  36 879
  od+_42_879  drn  42 879
  od_43_879  drn  43 879
  od+_30_880  drn  30 880
  od+_35_880  drn  35 880
  od+_42_880  drn  42 880
  od_27_881  drn  27 881
  od+_28_881  drn  28 881
  od+_34_881  drn  34 881
  od+_41_881  drn  41 881
  od+_40_882  drn  40 882
  od+_46_882  drn  46 882
  od+_29_883  drn  29 883
  od_35_883  drn  35 883
  od_42_883  drn  42 883
  od+_37_885  drn  37 885
  od_43_885  drn  43 885
  od+_36_886  drn  36 886
  od_35_889  drn  35 889
  vd_25_892  drn  25 892
  vd+_25_898  drn  25 898
  vd+_25_899  drn  25 899
  vd+_25_900  drn  25 900
  vd+_25_902  drn  25 902
  vd+_25_903  drn  25 903
  vd_25_905  drn  25 905
  vd_25_912  drn  25 912
  vd_26_912  drn  26 912
  vd+_25_913  drn  25 913
  vd+_25_914  drn  25 914
  vd+_25_915  drn  25 915
  vd+_26_917  drn  26 917
  vd+_26_918  drn  26 918
  vd_26_946  drn  26 946
  vd+_26_948  drn  26 948
  vd+_26_949  drn  26 949
  vd_26_950  drn  26 950
  od+_29_950  drn  29 950
  vd+_26_952  drn  26 952
  vd+_26_953  drn  26 953
  vd+_26_954  drn  26 954
  vd+_26_955  drn  26 955
  od+_29_958  drn  29 958
  od+_31_958  drn  31 958
  vd_26_959  drn  26 959
  od+_29_960  drn  29 960
  od+_31_960  drn  31 960
  od+_29_961  drn  29 961
  fwd+_31_961  drn  31 961
  od+_29_962  drn  29 962
  od+_31_962  drn  31 962
  od+_29_963  drn  29 963
  od+_31_963  drn  31 963
  od+_29_964  drn  29 964
  od+_31_964  drn  31 964
  od+_29_965  drn  29 965
  od+_31_965  drn  31 965
  od+_29_966  drn  29 966
  od+_31_966  drn  31 966
  vd+_26_967  drn  26 967
  hl+_40_967  drn  40 967
  fwd+_29_969  drn  29 969
  hl+_40_970  drn  40 970
  hl+_40_971  drn  40 971
  hl+_40_972  drn  40 972
  op+_40_974  drn  40 974
  op+_40_976  drn  40 976
  fwd+_29_977  drn  29 977
  fwd+_31_977  drn  31 977
  hl+_40_977  drn  40 977
  od+_29_978  drn  29 978
  fwd_31_978  drn  31 978
  hl+_40_978  drn  40 978
  fwd+_29_979  drn  29 979
  od+_29_980  drn  29 980
  fwd+_31_980  drn  31 980
  fwd+_33_980  drn  33 980
  od+_29_981  drn  29 981
  od+_31_981  drn  31 981
  od+_29_982  drn  29 982
  od+_31_982  drn  31 982
  dse+_38_982  drn  38 982
  op+_39_982  drn  39 982
  op+_40_982  drn  40 982
  od+_29_983  drn  29 983
  od+_31_983  drn  31 983
  fwd+_33_983  drn  33 983
  hl+_40_983  drn  40 983
  od+_29_984  drn  29 984
  od+_31_984  drn  31 984
  fwd+_33_984  drn  33 984
  fwd+_29_985  drn  29 985
  fwd+_29_986  drn  29 986
  fwd+_31_986  drn  31 986
  fwd+_33_986  drn  33 986
  op+_29_987  drn  29 987
  op+_31_987  drn  31 987
  op+_33_987  drn  33 987
  fwd+_29_988  drn  29 988
  fwd+_31_988  drn  31 988
  fwd+_33_988  drn  33 988
  od+_29_989  drn  29 989
  hl+_40_989  drn  40 989
  od+_29_990  drn  29 990
  od+_31_990  drn  31 990
  hl+_40_990  drn  40 990
  od+_27_991  drn  27 991
  od+_29_991  drn  29 991
  fwd+_31_991  drn  31 991
  od+_33_991  drn  33 991
  od+_27_992  drn  27 992
  od+_29_992  drn  29 992
  od+_31_992  drn  31 992
  od+_33_992  drn  33 992
  hl+_40_992  drn  40 992
  od_29_993  drn  29 993
  od+_29_994  drn  29 994
  od+_31_994  drn  31 994
  od+_29_995  drn  29 995
  od+_31_995  drn  31 995
  od+_33_995  drn  33 995
  od+_29_996  drn  29 996
  od+_31_996  drn  31 996
  od+_33_996  drn  33 996
  od+_31_997  drn  31 997
  od+_33_997  drn  33 997
  od+_31_998  drn  31 998
  od+_33_998  drn  33 998
  od+_31_999  drn  31 999
  od+_33_999  drn  33 999
  od+_31_1000  drn  31 1000
  od+_33_1000  drn  33 1000
  od+_29_1001  drn  29 1001
  od+_31_1001  drn  31 1001
  fwd+_33_1001  drn  33 1001
  od+_29_1002  drn  29 1002
  od+_31_1002  drn  31 1002
  od+_33_1002  drn  33 1002
  od+_29_1003  drn  29 1003
  od+_31_1003  drn  31 1003
  fwd_33_1003  drn  33 1003
  od+_29_1004  drn  29 1004
  od+_31_1004  drn  31 1004
  fwd+_33_1004  drn  33 1004
  od+_29_1005  drn  29 1005
  od+_31_1005  drn  31 1005
  od+_33_1005  drn  33 1005
  od+_31_1006  drn  31 1006
  od+_33_1006  drn  33 1006
  od+_29_1007  drn  29 1007
  od+_31_1007  drn  31 1007
  od+_33_1007  drn  33 1007
  dse+_38_1007  drn  38 1007
  od+_31_1008  drn  31 1008
  od+_33_1008  drn  33 1008
  dse_38_1008  drn  38 1008
  dse+_39_1008  drn  39 1008
  od+_31_1011  drn  31 1011
  od+_33_1011  drn  33 1011
  od+_31_1017  drn  31 1017
  od+_33_1017  drn  33 1017