# File generated by Flopy version 3.5.0.dev0 on 07/29/2024 at 12:54:14.
BEGIN griddata
  strt
    INTERNAL  FACTOR  1.0
      1103.56799316    1100.04968262    1100.20739746    1101.10168457    1104.61987305    1104.79138184    1097.01867676     936.95452881    1039.46057129    1097.43530273    1104.66613770    1102.08410645    1102.03515625    1108.63781738    1112.30566406    1106.76135254    1114.92504883    1031.27209473    1179.63598633    1205.04235840
      1105.34094238    1103.39074707    1103.55737305    1107.05859375    1107.05859375    1107.05859375    1107.05859375    1115.11169434    1115.11169434    1115.11169434    1115.11169434    1115.11169434    1115.11169434    1115.11169434    1110.79150391    1109.25927734    1080.46862793    1197.93994141    1222.08630371    1105.34936523
      1104.43029785    1105.21887207    1107.76135254    1107.76135254    1107.76135254    1107.76135254    1107.76135254    1107.76135254    1107.76135254    1107.76135254    1107.76135254    1107.76135254    1107.76135254    1107.76135254    1107.76135254    1107.76135254    1107.76135254    1107.76135254    1112.57116699    1112.57116699
      1112.57116699    1112.57116699    1112.57116699    1112.57116699    1112.57116699    1112.57116699    1112.57116699    1112.57116699    1112.57116699    1112.57116699    1112.57116699    1112.57116699    1112.57116699    1112.57116699    1112.57116699    1112.57116699    1112.57116699    1112.57116699    1112.57116699    1112.57116699
      1112.57116699    1112.57116699    1112.57116699    1112.57116699    1112.57116699    1112.57116699    1112.57116699    1112.57116699    1112.57116699    1112.57116699    1112.57116699    1112.57116699    1112.57116699    1112.57116699    1112.57116699    1112.57116699    1112.57116699    1112.57116699    1112.57116699    1112.57116699
      1112.57116699    1112.57116699    1112.57116699    1112.57116699    1112.57116699    1112.57116699    1112.57116699    1112.57116699    1112.57116699    1112.57116699    1112.57116699    1112.57116699    1112.57116699    1112.57116699    1112.57116699    1112.57116699    1112.57116699    1112.57116699    1112.57116699    1112.57116699
      1112.57116699    1112.57116699    1112.57116699    1112.57116699    1112.57116699    1112.57116699    1112.57116699    1112.57116699    1112.57116699    1112.57116699    1112.57116699    1112.57116699    1112.57116699    1112.57116699    1112.57116699    1112.57116699    1112.57116699    1112.57116699    1112.57116699    1112.57116699
      1112.57116699    1112.57116699    1112.57116699    1112.57116699    1112.57116699    1112.57116699    1112.57116699    1112.57116699    1112.57116699    1112.57116699    1112.57116699    1112.57116699    1112.57116699    1112.57116699    1112.57116699    1112.57116699    1112.57116699    1112.57116699    1112.57116699    1112.57116699
      1112.57116699    1112.57116699    1112.57116699    1112.57116699    1112.57116699    1112.57116699    1112.57116699    1112.57116699    1112.57116699    1112.57116699    1112.57116699    1112.57116699    1112.57116699    1112.57116699    1112.57116699    1112.57116699    1112.57116699    1112.57116699    1112.57116699    1112.57116699
      1112.57116699    1112.57116699    1112.57116699    1112.57116699    1112.57116699    1112.57116699    1112.57116699    1112.57116699    1112.57116699    1112.57116699    1112.57116699    1112.57116699    1112.57116699    1112.57116699    1112.57116699    1112.57116699    1112.57116699    1112.57116699    1112.57116699    1112.57116699
      1112.57116699    1112.57116699    1112.57116699    1112.57116699    1112.57116699    1112.57116699    1112.57116699    1112.57116699    1112.57116699    1112.57116699    1112.57116699    1112.57116699    1112.57116699    1112.57116699    1112.57116699    1112.57116699    1112.57116699    1112.57116699    1112.57116699    1112.57116699
      1112.57116699    1112.57116699    1112.57116699    1112.57116699    1112.57116699    1112.57116699    1112.57116699    1112.57116699    1112.57116699    1112.57116699    1112.57116699    1112.57116699    1112.57116699    1112.57116699    1112.57116699    1112.57116699    1112.57116699    1112.57116699    1112.57116699    1112.57116699
      1112.57116699    1112.57116699    1112.57116699    1112.57116699    1112.57116699    1118.95349121    1118.95349121    1118.95349121    1118.95349121    1118.95349121    1118.95349121    1118.95349121    1118.95349121    1118.95349121    1118.95349121    1118.95349121    1118.95349121    1118.95349121    1118.95349121    1118.95349121
      1118.95349121    1113.62377930    1113.62377930    1113.62377930    1113.62377930    1107.94189453    1189.88232422    1220.98107910    1104.88354492    1104.89184570    1106.19824219    1108.61791992    1108.61791992    1108.61791992    1108.61791992    1108.61791992    1108.61791992    1108.61791992    1112.89782715    1112.89782715
      1112.89782715    1112.89782715    1112.89782715    1112.89782715    1112.89782715    1112.89782715    1112.89782715    1112.89782715    1112.89782715    1112.89782715    1112.89782715    1112.89782715    1112.89782715    1112.89782715    1112.89782715    1112.89782715    1112.89782715    1112.89782715    1112.89782715    1112.89782715
      1112.89782715    1112.89782715    1112.89782715    1112.89782715    1112.89782715    1112.89782715    1112.89782715    1112.89782715    1112.89782715    1112.89782715    1112.89782715    1112.89782715    1112.89782715    1112.89782715    1112.89782715    1112.89782715    1112.89782715    1112.89782715    1112.89782715    1112.89782715
      1112.89782715    1112.89782715    1112.89782715    1112.89782715    1112.89782715    1112.89782715    1112.89782715    1112.89782715    1112.89782715    1112.89782715    1112.89782715    1112.89782715    1112.89782715    1112.89782715    1112.89782715    1112.89782715    1112.89782715    1112.89782715    1112.89782715    1112.89782715
      1112.89782715    1112.89782715    1112.89782715    1112.89782715    1112.89782715    1112.89782715    1112.89782715    1112.89782715    1112.89782715    1112.89782715    1112.89782715    1112.89782715    1112.89782715    1112.89782715    1112.89782715    1112.89782715    1112.89782715    1112.89782715    1112.89782715    1112.89782715
      1112.89782715    1112.89782715    1112.89782715    1112.89782715    1112.89782715    1112.89782715    1112.89782715    1112.89782715    1112.89782715    1112.89782715    1112.89782715    1112.89782715    1112.89782715    1112.89782715    1112.89782715    1112.89782715    1112.89782715    1112.89782715    1112.89782715    1112.89782715
      1112.89782715    1112.89782715    1112.89782715    1112.89782715    1112.89782715    1112.89782715    1112.89782715    1112.89782715    1112.89782715    1112.89782715    1112.89782715    1112.89782715    1112.89782715    1112.89782715    1112.89782715    1112.89782715    1112.89782715    1112.89782715    1112.89782715    1112.89782715
      1112.89782715    1112.89782715    1112.89782715    1112.89782715    1112.89782715    1112.89782715    1112.89782715    1112.89782715    1112.89782715    1112.89782715    1112.89782715    1112.89782715    1112.89782715    1112.89782715    1112.89782715    1112.89782715    1112.89782715    1112.89782715    1112.89782715    1112.89782715
      1112.89782715    1112.89782715    1112.89782715    1112.89782715    1112.89782715    1112.89782715    1112.89782715    1112.89782715    1112.89782715    1112.89782715    1112.89782715    1112.89782715    1112.89782715    1112.89782715    1112.89782715    1112.89782715    1112.89782715    1112.89782715    1112.89782715    1112.89782715
      1112.89782715    1112.89782715    1112.89782715    1112.89782715    1112.89782715    1112.89782715    1112.89782715    1112.89782715    1112.89782715    1112.89782715    1112.89782715    1112.89782715    1112.89782715    1112.89782715    1112.89782715    1112.89782715    1112.89782715    1112.89782715    1112.89782715    1112.89782715
      1112.89782715    1112.89782715    1112.89782715    1112.89782715    1112.89782715    1112.89782715    1112.89782715    1112.89782715    1112.89782715    1112.89782715    1112.89782715    1112.89782715    1112.89782715    1112.89782715    1112.89782715    1112.89782715    1112.89782715    1112.89782715    1112.89782715    1112.89782715
      1112.89782715    1112.89782715    1112.89782715    1112.89782715    1112.89782715    1112.89782715    1112.89782715    1112.89782715    1112.89782715    1112.89782715    1112.89782715    1112.89782715    1112.89782715    1112.89782715    1112.89782715    1112.89782715    1112.89782715    1112.89782715    1112.89782715    1112.89782715
      1112.89782715    1112.89782715    1112.89782715    1112.89782715    1112.89782715    1112.89782715    1112.89782715    1112.89782715    1112.89782715    1112.89782715    1112.89782715    1112.89782715    1112.89782715    1112.89782715    1112.89782715    1112.89782715    1112.89782715    1112.89782715    1112.89782715    1112.89782715
      1112.89782715    1112.89782715    1112.89782715    1112.89782715    1112.89782715    1112.89782715    1112.89782715    1112.89782715    1112.89782715    1112.89782715    1112.89782715    1112.89782715    1112.89782715    1112.89782715    1112.89782715    1112.89782715    1112.89782715    1112.89782715    1112.89782715    1112.89782715
      1112.89782715    1112.89782715    1112.89782715    1112.89782715    1112.89782715    1112.89782715    1112.89782715    1112.89782715    1112.89782715    1112.89782715    1112.89782715    1112.89782715    1112.89782715    1112.89782715    1112.89782715    1112.89782715    1112.89782715    1112.89782715    1112.89782715    1112.89782715
      1112.89782715    1112.89782715    1112.89782715    1112.89782715    1117.36169434    1117.36169434    1117.36169434    1117.36169434    1117.36169434    1117.36169434    1117.36169434    1117.36169434    1117.36169434    1117.36169434    1117.36169434    1117.36169434    1117.36169434    1117.36169434    1117.36169434    1117.36169434
      1117.36169434    1117.36169434    1117.36169434    1117.36169434    1117.36169434    1117.36169434    1117.36169434    1117.36169434    1117.36169434    1117.36169434    1117.36169434    1117.36169434    1117.36169434    1117.36169434    1117.36169434    1117.36169434    1117.36169434    1117.36169434    1117.36169434    1117.36169434
      1117.36169434    1117.36169434    1117.36169434    1117.36169434    1117.36169434    1117.36169434    1117.36169434    1117.36169434    1117.36169434    1117.36169434    1117.36169434    1117.36169434    1117.36169434    1117.36169434    1117.36169434    1117.36169434    1117.36169434    1117.36169434    1117.36169434    1117.36169434
      1117.36169434    1117.36169434    1117.36169434    1117.36169434    1117.36169434    1117.36169434    1117.36169434    1117.36169434    1117.36169434    1117.36169434    1117.36169434    1117.36169434    1117.36169434    1117.36169434    1117.36169434    1117.36169434    1117.36169434    1117.36169434    1117.36169434    1117.36169434
      1117.36169434    1117.36169434    1117.36169434    1117.36169434    1117.36169434    1117.36169434    1117.36169434    1117.36169434    1117.36169434    1117.36169434    1117.36169434    1117.36169434    1117.36169434    1117.36169434    1117.36169434    1117.36169434    1117.36169434    1117.36169434    1117.36169434    1117.36169434
      1117.36169434    1117.36169434    1117.36169434    1117.36169434    1117.36169434    1117.36169434    1117.36169434    1117.36169434    1117.36169434    1117.36169434    1117.36169434    1117.36169434    1117.36169434    1117.36169434    1117.36169434    1117.36169434    1117.36169434    1117.36169434    1117.36169434    1117.36169434
      1117.36169434    1117.36169434    1117.36169434    1117.36169434    1117.36169434    1117.36169434    1117.36169434    1117.36169434    1117.36169434    1117.36169434    1117.36169434    1117.36169434    1117.36169434    1117.36169434    1117.36169434    1117.36169434    1117.36169434    1117.36169434    1117.36169434    1117.36169434
      1117.36169434    1117.36169434    1117.36169434    1117.36169434    1117.36169434    1117.36169434    1117.36169434    1117.36169434    1117.36169434    1117.36169434    1117.36169434    1117.36169434    1117.36169434    1117.36169434    1117.36169434    1117.36169434    1117.36169434    1117.36169434    1117.36169434    1117.36169434
      1117.36169434    1117.36169434    1117.36169434    1117.36169434    1117.36169434    1117.36169434    1117.36169434    1117.36169434    1117.36169434    1117.36169434    1117.36169434    1117.36169434    1117.36169434    1117.36169434    1117.36169434    1117.36169434    1117.36169434    1117.36169434    1117.36169434    1117.36169434
      1117.36169434    1117.36169434    1117.36169434    1117.36169434    1117.36169434    1117.36169434    1117.36169434    1117.36169434    1117.36169434    1117.36169434    1117.36169434    1117.36169434    1117.36169434    1117.36169434    1117.36169434    1117.36169434    1117.36169434    1117.36169434    1117.36169434    1117.36169434
      1117.36169434    1117.36169434    1117.36169434    1117.36169434    1117.36169434    1117.36169434    1117.36169434    1117.36169434    1117.36169434    1117.36169434    1117.36169434    1117.36169434    1117.36169434    1117.36169434    1117.36169434    1117.36169434    1117.36169434    1117.36169434    1117.36169434    1117.36169434
      1117.36169434    1117.36169434    1117.36169434    1117.36169434    1117.36169434    1117.36169434    1117.36169434    1117.36169434    1117.36169434    1117.36169434    1117.36169434    1117.36169434    1117.36169434    1117.36169434    1117.36169434    1117.36169434    1117.36169434    1117.36169434    1117.36169434    1117.36169434
      1117.36169434    1117.36169434    1117.36169434    1117.36169434    1117.36169434    1117.36169434    1117.36169434    1117.36169434    1117.36169434    1117.36169434    1117.36169434    1117.36169434    1117.36169434    1117.36169434    1117.36169434    1117.36169434    1117.36169434    1117.36169434    1117.36169434    1117.36169434
      1117.36169434    1117.36169434    1117.36169434    1117.36169434    1117.36169434    1117.36169434    1117.36169434    1117.36169434    1117.36169434    1117.36169434    1117.36169434    1117.36169434    1117.36169434    1117.36169434    1117.36169434    1117.36169434    1117.36169434    1117.36169434    1117.36169434    1117.36169434
      1117.36169434    1117.36169434    1117.36169434    1117.36169434    1117.36169434    1117.36169434    1117.36169434    1117.36169434    1117.36169434    1117.36169434    1117.36169434    1117.36169434    1117.36169434    1117.36169434    1117.36169434    1117.36169434    1117.36169434    1117.36169434    1117.36169434    1117.36169434
      1117.36169434    1117.36169434    1117.36169434    1117.36169434    1117.36169434    1117.36169434    1117.36169434    1117.36169434    1117.36169434    1117.36169434    1117.36169434    1117.36169434    1117.36169434    1117.36169434    1117.36169434    1117.36169434    1117.36169434    1117.36169434    1117.36169434    1117.36169434
      1117.36169434    1117.36169434    1117.36169434    1117.36169434    1117.36169434    1117.36169434    1117.36169434    1117.36169434    1117.36169434    1117.36169434    1117.36169434    1117.36169434    1117.36169434    1117.36169434    1117.36169434    1117.36169434    1117.36169434    1117.36169434    1117.36169434    1117.36169434
      1117.36169434    1117.36169434    1117.36169434    1117.36169434    1117.36169434    1117.36169434    1117.36169434    1117.36169434    1117.36169434    1117.36169434    1117.36169434    1117.36169434    1117.36169434    1117.36169434    1117.36169434    1117.36169434    1117.36169434    1117.36169434    1117.36169434    1117.36169434
      1117.36169434    1117.36169434    1117.36169434    1117.36169434    1117.36169434    1117.36169434    1117.36169434    1117.36169434    1117.36169434    1117.36169434    1117.36169434    1117.36169434    1117.36169434    1117.36169434    1117.36169434    1117.36169434    1117.36169434    1117.36169434    1117.36169434    1117.36169434
      1117.36169434    1117.36169434    1117.36169434    1117.36169434    1117.36169434    1117.36169434    1117.36169434    1117.36169434    1117.36169434    1117.36169434    1117.36169434    1117.36169434    1117.36169434    1117.36169434    1117.36169434    1117.36169434    1117.36169434    1117.36169434    1117.36169434    1117.36169434
      1117.36169434    1117.36169434    1117.36169434    1117.36169434    1117.36169434    1117.36169434    1117.36169434    1117.36169434    1117.36169434    1117.36169434    1117.36169434    1117.36169434    1117.36169434    1117.36169434    1117.36169434    1117.36169434    1117.36169434    1117.36169434    1117.36169434    1117.36169434
      1117.36169434    1117.36169434    1117.36169434    1117.36169434    1117.36169434    1117.36169434    1117.36169434    1117.36169434    1117.36169434    1117.36169434    1117.36169434    1117.36169434    1117.36169434    1117.36169434    1117.36169434    1117.36169434    1117.36169434    1117.36169434    1117.36169434    1117.36169434
      1117.36169434    1117.36169434    1117.36169434    1117.36169434    1117.36169434    1117.36169434    1117.36169434    1117.36169434    1117.36169434    1117.36169434    1117.36169434    1117.36169434    1117.36169434    1117.36169434    1117.36169434    1117.36169434    1117.36169434    1117.36169434    1117.36169434    1117.36169434
      1117.36169434    1117.36169434    1117.36169434    1117.36169434    1117.36169434    1117.36169434    1117.36169434    1117.36169434    1117.36169434    1117.36169434    1117.36169434    1117.36169434    1117.36169434    1117.36169434    1117.36169434    1117.36169434    1117.36169434    1117.36169434    1117.36169434    1117.36169434
      1117.36169434    1117.36169434    1117.36169434    1117.36169434    1117.36169434    1117.36169434    1117.36169434    1117.36169434    1117.36169434    1117.36169434    1117.36169434    1117.36169434    1117.36169434    1117.36169434    1117.36169434    1117.36169434    1117.36169434    1117.36169434    1117.36169434    1117.36169434
      1117.36169434    1117.36169434    1117.36169434    1117.36169434    1117.36169434    1117.36169434    1117.36169434    1117.36169434    1117.36169434    1117.36169434    1117.36169434    1117.36169434    1117.36169434    1117.36169434    1117.36169434    1117.36169434    1117.36169434    1117.36169434    1117.36169434    1117.36169434
      1117.36169434    1117.36169434    1117.36169434    1117.36169434    1117.36169434    1117.36169434    1117.36169434    1117.36169434    1117.36169434    1117.36169434    1117.36169434    1117.36169434    1117.36169434    1117.36169434    1117.36169434    1117.36169434    1117.36169434    1117.36169434    1117.36169434    1117.36169434
      1117.36169434    1117.36169434    1117.36169434    1117.36169434    1117.36169434    1117.36169434    1117.36169434    1117.36169434    1117.36169434    1117.36169434    1117.36169434    1117.36169434    1117.36169434    1117.36169434    1117.36169434    1117.36169434    1117.36169434    1117.36169434    1117.36169434    1117.36169434
      1117.36169434    1117.36169434    1117.36169434    1117.36169434    1117.36169434    1117.36169434    1117.36169434    1117.36169434    1117.36169434    1117.36169434    1117.36169434    1117.36169434    1117.36169434    1117.36169434    1117.36169434    1117.36169434    1117.36169434    1117.36169434    1117.36169434    1117.36169434
      1117.36169434    1117.36169434    1117.36169434    1117.36169434    1117.36169434    1117.36169434    1117.36169434    1117.36169434    1117.36169434    1117.36169434    1117.36169434    1117.36169434    1117.36169434    1117.36169434    1117.36169434    1117.36169434    1117.36169434    1117.36169434    1117.36169434    1117.36169434
      1117.36169434    1117.36169434    1117.36169434    1117.36169434    1117.36169434    1121.38720703    1121.38720703    1121.38720703    1121.38720703    1121.38720703    1121.38720703    1121.38720703    1121.38720703    1121.38720703    1121.38720703    1121.38720703    1121.38720703    1121.38720703    1101.72094727    1198.99829102
      1224.03942871    1104.01745605    1105.00280762    1107.01232910    1109.85705566    1109.85705566    1109.85705566    1109.85705566    1113.57031250    1113.57031250    1113.57031250    1113.57031250    1113.57031250    1113.57031250    1113.57031250    1113.57031250    1113.57031250    1113.57031250    1113.57031250    1113.57031250
      1113.57031250    1113.57031250    1113.57031250    1113.57031250    1113.57031250    1113.57031250    1113.57031250    1113.57031250    1113.57031250    1113.57031250    1113.57031250    1113.57031250    1113.57031250    1113.57031250    1113.57031250    1113.57031250    1113.57031250    1113.57031250    1113.57031250    1113.57031250
      1113.57031250    1113.57031250    1113.57031250    1113.57031250    1113.57031250    1113.57031250    1113.57031250    1113.57031250    1113.57031250    1113.57031250    1113.57031250    1113.57031250    1113.57031250    1113.57031250    1113.57031250    1113.57031250    1113.57031250    1113.57031250    1113.57031250    1113.57031250
      1113.57031250    1113.57031250    1113.57031250    1113.57031250    1113.57031250    1113.57031250    1113.57031250    1113.57031250    1113.57031250    1113.57031250    1113.57031250    1113.57031250    1113.57031250    1113.57031250    1113.57031250    1113.57031250    1113.57031250    1113.57031250    1113.57031250    1113.57031250
      1113.57031250    1113.57031250    1113.57031250    1113.57031250    1113.57031250    1113.57031250    1113.57031250    1113.57031250    1113.57031250    1113.57031250    1113.57031250    1113.57031250    1113.57031250    1113.57031250    1113.57031250    1113.57031250    1113.57031250    1113.57031250    1113.57031250    1113.57031250
      1113.57031250    1113.57031250    1113.57031250    1113.57031250    1113.57031250    1113.57031250    1113.57031250    1113.57031250    1113.57031250    1113.57031250    1113.57031250    1113.57031250    1113.57031250    1113.57031250    1113.57031250    1113.57031250    1113.57031250    1113.57031250    1113.57031250    1113.57031250
      1113.57031250    1113.57031250    1113.57031250    1113.57031250    1113.57031250    1113.57031250    1113.57031250    1113.57031250    1113.57031250    1113.57031250    1113.57031250    1113.57031250    1113.57031250    1113.57031250    1113.57031250    1113.57031250    1113.57031250    1113.57031250    1113.57031250    1113.57031250
      1113.57031250    1113.57031250    1113.57031250    1113.57031250    1113.57031250    1113.57031250    1113.57031250    1113.57031250    1113.57031250    1113.57031250    1113.57031250    1113.57031250    1113.57031250    1113.57031250    1113.57031250    1113.57031250    1113.57031250    1113.57031250    1113.57031250    1113.57031250
      1113.57031250    1113.57031250    1113.57031250    1113.57031250    1113.57031250    1113.57031250    1113.57031250    1113.57031250    1113.57031250    1113.57031250    1113.57031250    1113.57031250    1113.57031250    1113.57031250    1113.57031250    1113.57031250    1113.57031250    1113.57031250    1113.57031250    1113.57031250
      1113.57031250    1113.57031250    1113.57031250    1117.79895020    1117.79895020    1117.79895020    1117.79895020    1117.79895020    1117.79895020    1117.79895020    1117.79895020    1117.79895020    1117.79895020    1117.79895020    1117.79895020    1117.79895020    1117.79895020    1117.79895020    1117.79895020    1117.79895020
      1117.79895020    1117.79895020    1117.79895020    1117.79895020    1117.79895020    1117.79895020    1117.79895020    1117.79895020    1117.79895020    1117.79895020    1117.79895020    1117.79895020    1117.79895020    1117.79895020    1117.79895020    1117.79895020    1117.79895020    1117.79895020    1117.79895020    1117.79895020
      1117.79895020    1117.79895020    1117.79895020    1117.79895020    1117.79895020    1117.79895020    1117.79895020    1117.79895020    1117.79895020    1117.79895020    1117.79895020    1117.79895020    1117.79895020    1117.79895020    1117.79895020    1117.79895020    1117.79895020    1117.79895020    1117.79895020    1117.79895020
      1117.79895020    1117.79895020    1117.79895020    1117.79895020    1117.79895020    1117.79895020    1117.79895020    1117.79895020    1117.79895020    1117.79895020    1117.79895020    1117.79895020    1117.79895020    1117.79895020    1117.79895020    1117.79895020    1117.79895020    1117.79895020    1117.79895020    1117.79895020
      1117.79895020    1117.79895020    1117.79895020    1117.79895020    1117.79895020    1117.79895020    1117.79895020    1117.79895020    1117.79895020    1117.79895020    1117.79895020    1117.79895020    1117.79895020    1117.79895020    1117.79895020    1117.79895020    1117.79895020    1117.79895020    1117.79895020    1117.79895020
      1117.79895020    1117.79895020    1117.79895020    1117.79895020    1117.79895020    1117.79895020    1117.79895020    1117.79895020    1117.79895020    1117.79895020    1117.79895020    1117.79895020    1117.79895020    1117.79895020    1117.79895020    1117.79895020    1117.79895020    1117.79895020    1117.79895020    1117.79895020
      1117.79895020    1117.79895020    1117.79895020    1117.79895020    1117.79895020    1117.79895020    1117.79895020    1117.79895020    1117.79895020    1117.79895020    1117.79895020    1117.79895020    1117.79895020    1117.79895020    1117.79895020    1117.79895020    1117.79895020    1117.79895020    1117.79895020    1117.79895020
      1117.79895020    1117.79895020    1117.79895020    1117.79895020    1117.79895020    1117.79895020    1117.79895020    1117.79895020    1117.79895020    1117.79895020    1117.79895020    1117.79895020    1117.79895020    1117.79895020    1117.79895020    1117.79895020    1117.79895020    1117.79895020    1117.79895020    1117.79895020
      1117.79895020    1117.79895020    1117.79895020    1117.79895020    1117.79895020    1117.79895020    1117.79895020    1117.79895020    1117.79895020    1117.79895020    1117.79895020    1117.79895020    1117.79895020    1117.79895020    1117.79895020    1117.79895020    1117.79895020    1117.79895020    1117.79895020    1117.79895020
      1117.79895020    1117.79895020    1117.79895020    1117.79895020    1117.79895020    1117.79895020    1117.79895020    1117.79895020    1117.79895020    1117.79895020    1117.79895020    1117.79895020    1117.79895020    1117.79895020    1117.79895020    1117.79895020    1117.79895020    1117.79895020    1117.79895020    1117.79895020
      1117.79895020    1117.79895020    1117.79895020    1117.79895020    1117.79895020    1117.79895020    1117.79895020    1117.79895020    1117.79895020    1117.79895020    1117.79895020    1117.79895020    1117.79895020    1117.79895020    1117.79895020    1117.79895020    1117.79895020    1117.79895020    1117.79895020    1117.79895020
      1117.79895020    1117.79895020    1117.79895020    1117.79895020    1117.79895020    1117.79895020    1117.79895020    1117.79895020    1117.79895020    1117.79895020    1117.79895020    1117.79895020    1117.79895020    1117.79895020    1117.79895020    1117.79895020    1117.79895020    1117.79895020    1117.79895020    1117.79895020
      1117.79895020    1117.79895020    1117.79895020    1117.79895020    1117.79895020    1117.79895020    1117.79895020    1117.79895020    1117.79895020    1117.79895020    1117.79895020    1117.79895020    1117.79895020    1117.79895020    1117.79895020    1117.79895020    1117.79895020    1117.79895020    1117.79895020    1117.79895020
      1117.79895020    1117.79895020    1117.79895020    1117.79895020    1117.79895020    1117.79895020    1117.79895020    1117.79895020    1117.79895020    1117.79895020    1117.79895020    1117.79895020    1117.79895020    1117.79895020    1117.79895020    1117.79895020    1117.79895020    1117.79895020    1117.79895020    1117.79895020
      1117.79895020    1117.79895020    1117.79895020    1117.79895020    1117.79895020    1117.79895020    1117.79895020    1117.79895020    1117.79895020    1117.79895020    1117.79895020    1117.79895020    1117.79895020    1117.79895020    1117.79895020    1117.79895020    1117.79895020    1117.79895020    1117.79895020    1117.79895020
      1117.79895020    1117.79895020    1117.79895020    1117.79895020    1117.79895020    1117.79895020    1117.79895020    1117.79895020    1117.79895020    1117.79895020    1117.79895020    1117.79895020    1117.79895020    1117.79895020    1117.79895020    1117.79895020    1117.79895020    1117.79895020    1117.79895020    1117.79895020
      1117.79895020    1117.79895020    1117.79895020    1117.79895020    1117.79895020    1117.79895020    1117.79895020    1117.79895020    1117.79895020    1117.79895020    1117.79895020    1117.79895020    1117.79895020    1117.79895020    1117.79895020    1117.79895020    1117.79895020    1117.79895020    1117.79895020    1117.79895020
      1117.79895020    1117.79895020    1117.79895020    1117.79895020    1117.79895020    1117.79895020    1117.79895020    1117.79895020    1117.79895020    1117.79895020    1117.79895020    1117.79895020    1117.79895020    1117.79895020    1117.79895020    1117.79895020    1117.79895020    1117.79895020    1117.79895020    1117.79895020
      1117.79895020    1117.79895020    1117.79895020    1117.79895020    1117.79895020    1117.79895020    1117.79895020    1117.79895020    1117.79895020    1117.79895020    1117.79895020    1117.79895020    1117.79895020    1117.79895020    1117.79895020    1117.79895020    1117.79895020    1117.79895020    1117.79895020    1117.79895020