# File generated by Flopy version 3.5.0.dev0 on 07/29/2024 at 12:54:12.
BEGIN options
  SAVE_FLOWS
  NEWTON
END options

BEGIN packages
  oc6  flow.oc  oc
  npf6  flow.npf  npf
  ic6  flow.ic  ic
  sto6  flow.sto  sto
  disv6  flow.disv  disv
  RCH6  flow.rch  rch
  GHB6  flow.ghb  ghb_0
  MAW6  flow.maw  maw
  DRN6  flow.drn  drn
END packages

