# File generated by Flopy version 3.5.0.dev0 on 07/29/2024 at 12:54:12.
BEGIN options
  PRINT_OPTION  summary
  COMPLEXITY  complex
END options

BEGIN NONLINEAR
  OUTER_MAXIMUM 500
END NONLINEAR

