# File generated by Flopy version 3.6.0.dev0 on 05/07/2025 at 18:40:38.
BEGIN options
  CONTINUE
  MEMORY_PRINT_OPTION  all
END options

BEGIN timing
  TDIS6  xdbox.tdis
END timing

BEGIN models
  gwf6  xdbox.nam  xdbox
END models

BEGIN exchanges
END exchanges

BEGIN solutiongroup  1
  ims6  xdbox.ims  xdbox
END solutiongroup  1

