# File generated by Flopy version 3.6.0.dev0 on 05/07/2025 at 18:40:38.
BEGIN options
END options

BEGIN dimensions
  MAXBOUND  160
END dimensions

BEGIN period  1
  1 1 1 1.00100000E+03
  1 1 100 1.00000000E+03
  1 2 1 1.00100000E+03
  1 2 100 1.00000000E+03
  1 3 1 1.00100000E+03
  1 3 100 1.00000000E+03
  1 4 1 1.00100000E+03
  1 4 100 1.00000000E+03
  1 5 1 1.00100000E+03
  1 5 100 1.00000000E+03
  1 6 1 1.00100000E+03
  1 6 100 1.00000000E+03
  1 7 1 1.00100000E+03
  1 7 100 1.00000000E+03
  1 8 1 1.00100000E+03
  1 8 100 1.00000000E+03
  1 9 1 1.00100000E+03
  1 9 100 1.00000000E+03
  1 10 1 1.00100000E+03
  1 10 100 1.00000000E+03
  1 11 1 1.00100000E+03
  1 11 100 1.00000000E+03
  1 12 1 1.00100000E+03
  1 12 100 1.00000000E+03
  1 13 1 1.00100000E+03
  1 13 100 1.00000000E+03
  1 14 1 1.00100000E+03
  1 14 100 1.00000000E+03
  1 15 1 1.00100000E+03
  1 15 100 1.00000000E+03
  1 16 1 1.00100000E+03
  1 16 100 1.00000000E+03
  1 17 1 1.00100000E+03
  1 17 100 1.00000000E+03
  1 18 1 1.00100000E+03
  1 18 100 1.00000000E+03
  1 19 1 1.00100000E+03
  1 19 100 1.00000000E+03
  1 20 1 1.00100000E+03
  1 20 100 1.00000000E+03
  1 21 1 1.00100000E+03
  1 21 100 1.00000000E+03
  1 22 1 1.00100000E+03
  1 22 100 1.00000000E+03
  1 23 1 1.00100000E+03
  1 23 100 1.00000000E+03
  1 24 1 1.00100000E+03
  1 24 100 1.00000000E+03
  1 25 1 1.00100000E+03
  1 25 100 1.00000000E+03
  1 26 1 1.00100000E+03
  1 26 100 1.00000000E+03
  1 27 1 1.00100000E+03
  1 27 100 1.00000000E+03
  1 28 1 1.00100000E+03
  1 28 100 1.00000000E+03
  1 29 1 1.00100000E+03
  1 29 100 1.00000000E+03
  1 30 1 1.00100000E+03
  1 30 100 1.00000000E+03
  1 31 1 1.00100000E+03
  1 31 100 1.00000000E+03
  1 32 1 1.00100000E+03
  1 32 100 1.00000000E+03
  1 33 1 1.00100000E+03
  1 33 100 1.00000000E+03
  1 34 1 1.00100000E+03
  1 34 100 1.00000000E+03
  1 35 1 1.00100000E+03
  1 35 100 1.00000000E+03
  1 36 1 1.00100000E+03
  1 36 100 1.00000000E+03
  1 37 1 1.00100000E+03
  1 37 100 1.00000000E+03
  1 38 1 1.00100000E+03
  1 38 100 1.00000000E+03
  1 39 1 1.00100000E+03
  1 39 100 1.00000000E+03
  1 40 1 1.00100000E+03
  1 40 100 1.00000000E+03
  1 41 1 1.00100000E+03
  1 41 100 1.00000000E+03
  1 42 1 1.00100000E+03
  1 42 100 1.00000000E+03
  1 43 1 1.00100000E+03
  1 43 100 1.00000000E+03
  1 44 1 1.00100000E+03
  1 44 100 1.00000000E+03
  1 45 1 1.00100000E+03
  1 45 100 1.00000000E+03
  1 46 1 1.00100000E+03
  1 46 100 1.00000000E+03
  1 47 1 1.00100000E+03
  1 47 100 1.00000000E+03
  1 48 1 1.00100000E+03
  1 48 100 1.00000000E+03
  1 49 1 1.00100000E+03
  1 49 100 1.00000000E+03
  1 50 1 1.00100000E+03
  1 50 100 1.00000000E+03
  1 51 1 1.00100000E+03
  1 51 100 1.00000000E+03
  1 52 1 1.00100000E+03
  1 52 100 1.00000000E+03
  1 53 1 1.00100000E+03
  1 53 100 1.00000000E+03
  1 54 1 1.00100000E+03
  1 54 100 1.00000000E+03
  1 55 1 1.00100000E+03
  1 55 100 1.00000000E+03
  1 56 1 1.00100000E+03
  1 56 100 1.00000000E+03
  1 57 1 1.00100000E+03
  1 57 100 1.00000000E+03
  1 58 1 1.00100000E+03
  1 58 100 1.00000000E+03
  1 59 1 1.00100000E+03
  1 59 100 1.00000000E+03
  1 60 1 1.00100000E+03
  1 60 100 1.00000000E+03
  1 61 1 1.00100000E+03
  1 61 100 1.00000000E+03
  1 62 1 1.00100000E+03
  1 62 100 1.00000000E+03
  1 63 1 1.00100000E+03
  1 63 100 1.00000000E+03
  1 64 1 1.00100000E+03
  1 64 100 1.00000000E+03
  1 65 1 1.00100000E+03
  1 65 100 1.00000000E+03
  1 66 1 1.00100000E+03
  1 66 100 1.00000000E+03
  1 67 1 1.00100000E+03
  1 67 100 1.00000000E+03
  1 68 1 1.00100000E+03
  1 68 100 1.00000000E+03
  1 69 1 1.00100000E+03
  1 69 100 1.00000000E+03
  1 70 1 1.00100000E+03
  1 70 100 1.00000000E+03
  1 71 1 1.00100000E+03
  1 71 100 1.00000000E+03
  1 72 1 1.00100000E+03
  1 72 100 1.00000000E+03
  1 73 1 1.00100000E+03
  1 73 100 1.00000000E+03
  1 74 1 1.00100000E+03
  1 74 100 1.00000000E+03
  1 75 1 1.00100000E+03
  1 75 100 1.00000000E+03
  1 76 1 1.00100000E+03
  1 76 100 1.00000000E+03
  1 77 1 1.00100000E+03
  1 77 100 1.00000000E+03
  1 78 1 1.00100000E+03
  1 78 100 1.00000000E+03
  1 79 1 1.00100000E+03
  1 79 100 1.00000000E+03
  1 80 1 1.00100000E+03
  1 80 100 1.00000000E+03
END period  1

