# File generated by Flopy version 3.6.0.dev0 on 05/07/2025 at 18:40:38.
BEGIN options
  BUDGET  FILEOUT  xdbox.cbb
  HEAD  FILEOUT  xdbox.hds
END options

BEGIN period  1
  SAVE  HEAD  ALL
  SAVE  BUDGET  ALL
  PRINT  HEAD  ALL
END period  1

