# File generated by Flopy version 3.6.0.dev0 on 05/07/2025 at 18:40:38.
BEGIN options
END options

BEGIN griddata
  icelltype
    CONSTANT  1
  k
    CONSTANT      10.00000000
END griddata

