# File generated by Flopy version 3.6.0.dev0 on 05/07/2025 at 18:40:38.
BEGIN griddata
  strt
    INTERNAL  FACTOR  1.0
      1000.99500000    1000.98500000    1000.97500000    1000.96500000    1000.95500000    1000.94500000    1000.93500000    1000.92500000    1000.91500000    1000.90500000    1000.89500000    1000.88500000    1000.87500000    1000.86500000    1000.85500000    1000.84500000    1000.83500000    1000.82500000    1000.81500000    1000.80500000    1000.79500000    1000.78500000    1000.77500000    1000.76500000    1000.75500000    1000.74500000    1000.73500000    1000.72500000    1000.71500000    1000.70500000    1000.69500000    1000.68500000    1000.67500000    1000.66500000    1000.65500000    1000.64500000    1000.63500000    1000.62500000    1000.61500000    1000.60500000    1000.59500000    1000.58500000    1000.57500000    1000.56500000    1000.55500000    1000.54500000    1000.53500000    1000.52500000    1000.51500000    1000.50500000    1000.49500000    1000.48500000    1000.47500000    1000.46500000    1000.45500000    1000.44500000    1000.43500000    1000.42500000    1000.41500000    1000.40500000    1000.39500000    1000.38500000    1000.37500000    1000.36500000    1000.35500000    1000.34500000    1000.33500000    1000.32500000    1000.31500000    1000.30500000    1000.29500000    1000.28500000    1000.27500000    1000.26500000    1000.25500000    1000.24500000    1000.23500000    1000.22500000    1000.21500000    1000.20500000    1000.19500000    1000.18500000    1000.17500000    1000.16500000    1000.15500000    1000.14500000    1000.13500000    1000.12500000    1000.11500000    1000.10500000    1000.09500000    1000.08500000    1000.07500000    1000.06500000    1000.05500000    1000.04500000    1000.03500000    1000.02500000    1000.01500000    1000.00500000
      1000.99500000    1000.98500000    1000.97500000    1000.96500000    1000.95500000    1000.94500000    1000.93500000    1000.92500000    1000.91500000    1000.90500000    1000.89500000    1000.88500000    1000.87500000    1000.86500000    1000.85500000    1000.84500000    1000.83500000    1000.82500000    1000.81500000    1000.80500000    1000.79500000    1000.78500000    1000.77500000    1000.76500000    1000.75500000    1000.74500000    1000.73500000    1000.72500000    1000.71500000    1000.70500000    1000.69500000    1000.68500000    1000.67500000    1000.66500000    1000.65500000    1000.64500000    1000.63500000    1000.62500000    1000.61500000    1000.60500000    1000.59500000    1000.58500000    1000.57500000    1000.56500000    1000.55500000    1000.54500000    1000.53500000    1000.52500000    1000.51500000    1000.50500000    1000.49500000    1000.48500000    1000.47500000    1000.46500000    1000.45500000    1000.44500000    1000.43500000    1000.42500000    1000.41500000    1000.40500000    1000.39500000    1000.38500000    1000.37500000    1000.36500000    1000.35500000    1000.34500000    1000.33500000    1000.32500000    1000.31500000    1000.30500000    1000.29500000    1000.28500000    1000.27500000    1000.26500000    1000.25500000    1000.24500000    1000.23500000    1000.22500000    1000.21500000    1000.20500000    1000.19500000    1000.18500000    1000.17500000    1000.16500000    1000.15500000    1000.14500000    1000.13500000    1000.12500000    1000.11500000    1000.10500000    1000.09500000    1000.08500000    1000.07500000    1000.06500000    1000.05500000    1000.04500000    1000.03500000    1000.02500000    1000.01500000    1000.00500000
      1000.99500000    1000.98500000    1000.97500000    1000.96500000    1000.95500000    1000.94500000    1000.93500000    1000.92500000    1000.91500000    1000.90500000    1000.89500000    1000.88500000    1000.87500000    1000.86500000    1000.85500000    1000.84500000    1000.83500000    1000.82500000    1000.81500000    1000.80500000    1000.79500000    1000.78500000    1000.77500000    1000.76500000    1000.75500000    1000.74500000    1000.73500000    1000.72500000    1000.71500000    1000.70500000    1000.69500000    1000.68500000    1000.67500000    1000.66500000    1000.65500000    1000.64500000    1000.63500000    1000.62500000    1000.61500000    1000.60500000    1000.59500000    1000.58500000    1000.57500000    1000.56500000    1000.55500000    1000.54500000    1000.53500000    1000.52500000    1000.51500000    1000.50500000    1000.49500000    1000.48500000    1000.47500000    1000.46500000    1000.45500000    1000.44500000    1000.43500000    1000.42500000    1000.41500000    1000.40500000    1000.39500000    1000.38500000    1000.37500000    1000.36500000    1000.35500000    1000.34500000    1000.33500000    1000.32500000    1000.31500000    1000.30500000    1000.29500000    1000.28500000    1000.27500000    1000.26500000    1000.25500000    1000.24500000    1000.23500000    1000.22500000    1000.21500000    1000.20500000    1000.19500000    1000.18500000    1000.17500000    1000.16500000    1000.15500000    1000.14500000    1000.13500000    1000.12500000    1000.11500000    1000.10500000    1000.09500000    1000.08500000    1000.07500000    1000.06500000    1000.05500000    1000.04500000    1000.03500000    1000.02500000    1000.01500000    1000.00500000
      1000.99500000    1000.98500000    1000.97500000    1000.96500000    1000.95500000    1000.94500000    1000.93500000    1000.92500000    1000.91500000    1000.90500000    1000.89500000    1000.88500000    1000.87500000    1000.86500000    1000.85500000    1000.84500000    1000.83500000    1000.82500000    1000.81500000    1000.80500000    1000.79500000    1000.78500000    1000.77500000    1000.76500000    1000.75500000    1000.74500000    1000.73500000    1000.72500000    1000.71500000    1000.70500000    1000.69500000    1000.68500000    1000.67500000    1000.66500000    1000.65500000    1000.64500000    1000.63500000    1000.62500000    1000.61500000    1000.60500000    1000.59500000    1000.58500000    1000.57500000    1000.56500000    1000.55500000    1000.54500000    1000.53500000    1000.52500000    1000.51500000    1000.50500000    1000.49500000    1000.48500000    1000.47500000    1000.46500000    1000.45500000    1000.44500000    1000.43500000    1000.42500000    1000.41500000    1000.40500000    1000.39500000    1000.38500000    1000.37500000    1000.36500000    1000.35500000    1000.34500000    1000.33500000    1000.32500000    1000.31500000    1000.30500000    1000.29500000    1000.28500000    1000.27500000    1000.26500000    1000.25500000    1000.24500000    1000.23500000    1000.22500000    1000.21500000    1000.20500000    1000.19500000    1000.18500000    1000.17500000    1000.16500000    1000.15500000    1000.14500000    1000.13500000    1000.12500000    1000.11500000    1000.10500000    1000.09500000    1000.08500000    1000.07500000    1000.06500000    1000.05500000    1000.04500000    1000.03500000    1000.02500000    1000.01500000    1000.00500000
      1000.99500000    1000.98500000    1000.97500000    1000.96500000    1000.95500000    1000.94500000    1000.93500000    1000.92500000    1000.91500000    1000.90500000    1000.89500000    1000.88500000    1000.87500000    1000.86500000    1000.85500000    1000.84500000    1000.83500000    1000.82500000    1000.81500000    1000.80500000    1000.79500000    1000.78500000    1000.77500000    1000.76500000    1000.75500000    1000.74500000    1000.73500000    1000.72500000    1000.71500000    1000.70500000    1000.69500000    1000.68500000    1000.67500000    1000.66500000    1000.65500000    1000.64500000    1000.63500000    1000.62500000    1000.61500000    1000.60500000    1000.59500000    1000.58500000    1000.57500000    1000.56500000    1000.55500000    1000.54500000    1000.53500000    1000.52500000    1000.51500000    1000.50500000    1000.49500000    1000.48500000    1000.47500000    1000.46500000    1000.45500000    1000.44500000    1000.43500000    1000.42500000    1000.41500000    1000.40500000    1000.39500000    1000.38500000    1000.37500000    1000.36500000    1000.35500000    1000.34500000    1000.33500000    1000.32500000    1000.31500000    1000.30500000    1000.29500000    1000.28500000    1000.27500000    1000.26500000    1000.25500000    1000.24500000    1000.23500000    1000.22500000    1000.21500000    1000.20500000    1000.19500000    1000.18500000    1000.17500000    1000.16500000    1000.15500000    1000.14500000    1000.13500000    1000.12500000    1000.11500000    1000.10500000    1000.09500000    1000.08500000    1000.07500000    1000.06500000    1000.05500000    1000.04500000    1000.03500000    1000.02500000    1000.01500000    1000.00500000
      1000.99500000    1000.98500000    1000.97500000    1000.96500000    1000.95500000    1000.94500000    1000.93500000    1000.92500000    1000.91500000    1000.90500000    1000.89500000    1000.88500000    1000.87500000    1000.86500000    1000.85500000    1000.84500000    1000.83500000    1000.82500000    1000.81500000    1000.80500000    1000.79500000    1000.78500000    1000.77500000    1000.76500000    1000.75500000    1000.74500000    1000.73500000    1000.72500000    1000.71500000    1000.70500000    1000.69500000    1000.68500000    1000.67500000    1000.66500000    1000.65500000    1000.64500000    1000.63500000    1000.62500000    1000.61500000    1000.60500000    1000.59500000    1000.58500000    1000.57500000    1000.56500000    1000.55500000    1000.54500000    1000.53500000    1000.52500000    1000.51500000    1000.50500000    1000.49500000    1000.48500000    1000.47500000    1000.46500000    1000.45500000    1000.44500000    1000.43500000    1000.42500000    1000.41500000    1000.40500000    1000.39500000    1000.38500000    1000.37500000    1000.36500000    1000.35500000    1000.34500000    1000.33500000    1000.32500000    1000.31500000    1000.30500000    1000.29500000    1000.28500000    1000.27500000    1000.26500000    1000.25500000    1000.24500000    1000.23500000    1000.22500000    1000.21500000    1000.20500000    1000.19500000    1000.18500000    1000.17500000    1000.16500000    1000.15500000    1000.14500000    1000.13500000    1000.12500000    1000.11500000    1000.10500000    1000.09500000    1000.08500000    1000.07500000    1000.06500000    1000.05500000    1000.04500000    1000.03500000    1000.02500000    1000.01500000    1000.00500000
      1000.99500000    1000.98500000    1000.97500000    1000.96500000    1000.95500000    1000.94500000    1000.93500000    1000.92500000    1000.91500000    1000.90500000    1000.89500000    1000.88500000    1000.87500000    1000.86500000    1000.85500000    1000.84500000    1000.83500000    1000.82500000    1000.81500000    1000.80500000    1000.79500000    1000.78500000    1000.77500000    1000.76500000    1000.75500000    1000.74500000    1000.73500000    1000.72500000    1000.71500000    1000.70500000    1000.69500000    1000.68500000    1000.67500000    1000.66500000    1000.65500000    1000.64500000    1000.63500000    1000.62500000    1000.61500000    1000.60500000    1000.59500000    1000.58500000    1000.57500000    1000.56500000    1000.55500000    1000.54500000    1000.53500000    1000.52500000    1000.51500000    1000.50500000    1000.49500000    1000.48500000    1000.47500000    1000.46500000    1000.45500000    1000.44500000    1000.43500000    1000.42500000    1000.41500000    1000.40500000    1000.39500000    1000.38500000    1000.37500000    1000.36500000    1000.35500000    1000.34500000    1000.33500000    1000.32500000    1000.31500000    1000.30500000    1000.29500000    1000.28500000    1000.27500000    1000.26500000    1000.25500000    1000.24500000    1000.23500000    1000.22500000    1000.21500000    1000.20500000    1000.19500000    1000.18500000    1000.17500000    1000.16500000    1000.15500000    1000.14500000    1000.13500000    1000.12500000    1000.11500000    1000.10500000    1000.09500000    1000.08500000    1000.07500000    1000.06500000    1000.05500000    1000.04500000    1000.03500000    1000.02500000    1000.01500000    1000.00500000
      1000.99500000    1000.98500000    1000.97500000    1000.96500000    1000.95500000    1000.94500000    1000.93500000    1000.92500000    1000.91500000    1000.90500000    1000.89500000    1000.88500000    1000.87500000    1000.86500000    1000.85500000    1000.84500000    1000.83500000    1000.82500000    1000.81500000    1000.80500000    1000.79500000    1000.78500000    1000.77500000    1000.76500000    1000.75500000    1000.74500000    1000.73500000    1000.72500000    1000.71500000    1000.70500000    1000.69500000    1000.68500000    1000.67500000    1000.66500000    1000.65500000    1000.64500000    1000.63500000    1000.62500000    1000.61500000    1000.60500000    1000.59500000    1000.58500000    1000.57500000    1000.56500000    1000.55500000    1000.54500000    1000.53500000    1000.52500000    1000.51500000    1000.50500000    1000.49500000    1000.48500000    1000.47500000    1000.46500000    1000.45500000    1000.44500000    1000.43500000    1000.42500000    1000.41500000    1000.40500000    1000.39500000    1000.38500000    1000.37500000    1000.36500000    1000.35500000    1000.34500000    1000.33500000    1000.32500000    1000.31500000    1000.30500000    1000.29500000    1000.28500000    1000.27500000    1000.26500000    1000.25500000    1000.24500000    1000.23500000    1000.22500000    1000.21500000    1000.20500000    1000.19500000    1000.18500000    1000.17500000    1000.16500000    1000.15500000    1000.14500000    1000.13500000    1000.12500000    1000.11500000    1000.10500000    1000.09500000    1000.08500000    1000.07500000    1000.06500000    1000.05500000    1000.04500000    1000.03500000    1000.02500000    1000.01500000    1000.00500000
      1000.99500000    1000.98500000    1000.97500000    1000.96500000    1000.95500000    1000.94500000    1000.93500000    1000.92500000    1000.91500000    1000.90500000    1000.89500000    1000.88500000    1000.87500000    1000.86500000    1000.85500000    1000.84500000    1000.83500000    1000.82500000    1000.81500000    1000.80500000    1000.79500000    1000.78500000    1000.77500000    1000.76500000    1000.75500000    1000.74500000    1000.73500000    1000.72500000    1000.71500000    1000.70500000    1000.69500000    1000.68500000    1000.67500000    1000.66500000    1000.65500000    1000.64500000    1000.63500000    1000.62500000    1000.61500000    1000.60500000    1000.59500000    1000.58500000    1000.57500000    1000.56500000    1000.55500000    1000.54500000    1000.53500000    1000.52500000    1000.51500000    1000.50500000    1000.49500000    1000.48500000    1000.47500000    1000.46500000    1000.45500000    1000.44500000    1000.43500000    1000.42500000    1000.41500000    1000.40500000    1000.39500000    1000.38500000    1000.37500000    1000.36500000    1000.35500000    1000.34500000    1000.33500000    1000.32500000    1000.31500000    1000.30500000    1000.29500000    1000.28500000    1000.27500000    1000.26500000    1000.25500000    1000.24500000    1000.23500000    1000.22500000    1000.21500000    1000.20500000    1000.19500000    1000.18500000    1000.17500000    1000.16500000    1000.15500000    1000.14500000    1000.13500000    1000.12500000    1000.11500000    1000.10500000    1000.09500000    1000.08500000    1000.07500000    1000.06500000    1000.05500000    1000.04500000    1000.03500000    1000.02500000    1000.01500000    1000.00500000
      1000.99500000    1000.98500000    1000.97500000    1000.96500000    1000.95500000    1000.94500000    1000.93500000    1000.92500000    1000.91500000    1000.90500000    1000.89500000    1000.88500000    1000.87500000    1000.86500000    1000.85500000    1000.84500000    1000.83500000    1000.82500000    1000.81500000    1000.80500000    1000.79500000    1000.78500000    1000.77500000    1000.76500000    1000.75500000    1000.74500000    1000.73500000    1000.72500000    1000.71500000    1000.70500000    1000.69500000    1000.68500000    1000.67500000    1000.66500000    1000.65500000    1000.64500000    1000.63500000    1000.62500000    1000.61500000    1000.60500000    1000.59500000    1000.58500000    1000.57500000    1000.56500000    1000.55500000    1000.54500000    1000.53500000    1000.52500000    1000.51500000    1000.50500000    1000.49500000    1000.48500000    1000.47500000    1000.46500000    1000.45500000    1000.44500000    1000.43500000    1000.42500000    1000.41500000    1000.40500000    1000.39500000    1000.38500000    1000.37500000    1000.36500000    1000.35500000    1000.34500000    1000.33500000    1000.32500000    1000.31500000    1000.30500000    1000.29500000    1000.28500000    1000.27500000    1000.26500000    1000.25500000    1000.24500000    1000.23500000    1000.22500000    1000.21500000    1000.20500000    1000.19500000    1000.18500000    1000.17500000    1000.16500000    1000.15500000    1000.14500000    1000.13500000    1000.12500000    1000.11500000    1000.10500000    1000.09500000    1000.08500000    1000.07500000    1000.06500000    1000.05500000    1000.04500000    1000.03500000    1000.02500000    1000.01500000    1000.00500000
      1000.99500000    1000.98500000    1000.97500000    1000.96500000    1000.95500000    1000.94500000    1000.93500000    1000.92500000    1000.91500000    1000.90500000    1000.89500000    1000.88500000    1000.87500000    1000.86500000    1000.85500000    1000.84500000    1000.83500000    1000.82500000    1000.81500000    1000.80500000    1000.79500000    1000.78500000    1000.77500000    1000.76500000    1000.75500000    1000.74500000    1000.73500000    1000.72500000    1000.71500000    1000.70500000    1000.69500000    1000.68500000    1000.67500000    1000.66500000    1000.65500000    1000.64500000    1000.63500000    1000.62500000    1000.61500000    1000.60500000    1000.59500000    1000.58500000    1000.57500000    1000.56500000    1000.55500000    1000.54500000    1000.53500000    1000.52500000    1000.51500000    1000.50500000    1000.49500000    1000.48500000    1000.47500000    1000.46500000    1000.45500000    1000.44500000    1000.43500000    1000.42500000    1000.41500000    1000.40500000    1000.39500000    1000.38500000    1000.37500000    1000.36500000    1000.35500000    1000.34500000    1000.33500000    1000.32500000    1000.31500000    1000.30500000    1000.29500000    1000.28500000    1000.27500000    1000.26500000    1000.25500000    1000.24500000    1000.23500000    1000.22500000    1000.21500000    1000.20500000    1000.19500000    1000.18500000    1000.17500000    1000.16500000    1000.15500000    1000.14500000    1000.13500000    1000.12500000    1000.11500000    1000.10500000    1000.09500000    1000.08500000    1000.07500000    1000.06500000    1000.05500000    1000.04500000    1000.03500000    1000.02500000    1000.01500000    1000.00500000
      1000.99500000    1000.98500000    1000.97500000    1000.96500000    1000.95500000    1000.94500000    1000.93500000    1000.92500000    1000.91500000    1000.90500000    1000.89500000    1000.88500000    1000.87500000    1000.86500000    1000.85500000    1000.84500000    1000.83500000    1000.82500000    1000.81500000    1000.80500000    1000.79500000    1000.78500000    1000.77500000    1000.76500000    1000.75500000    1000.74500000    1000.73500000    1000.72500000    1000.71500000    1000.70500000    1000.69500000    1000.68500000    1000.67500000    1000.66500000    1000.65500000    1000.64500000    1000.63500000    1000.62500000    1000.61500000    1000.60500000    1000.59500000    1000.58500000    1000.57500000    1000.56500000    1000.55500000    1000.54500000    1000.53500000    1000.52500000    1000.51500000    1000.50500000    1000.49500000    1000.48500000    1000.47500000    1000.46500000    1000.45500000    1000.44500000    1000.43500000    1000.42500000    1000.41500000    1000.40500000    1000.39500000    1000.38500000    1000.37500000    1000.36500000    1000.35500000    1000.34500000    1000.33500000    1000.32500000    1000.31500000    1000.30500000    1000.29500000    1000.28500000    1000.27500000    1000.26500000    1000.25500000    1000.24500000    1000.23500000    1000.22500000    1000.21500000    1000.20500000    1000.19500000    1000.18500000    1000.17500000    1000.16500000    1000.15500000    1000.14500000    1000.13500000    1000.12500000    1000.11500000    1000.10500000    1000.09500000    1000.08500000    1000.07500000    1000.06500000    1000.05500000    1000.04500000    1000.03500000    1000.02500000    1000.01500000    1000.00500000
      1000.99500000    1000.98500000    1000.97500000    1000.96500000    1000.95500000    1000.94500000    1000.93500000    1000.92500000    1000.91500000    1000.90500000    1000.89500000    1000.88500000    1000.87500000    1000.86500000    1000.85500000    1000.84500000    1000.83500000    1000.82500000    1000.81500000    1000.80500000    1000.79500000    1000.78500000    1000.77500000    1000.76500000    1000.75500000    1000.74500000    1000.73500000    1000.72500000    1000.71500000    1000.70500000    1000.69500000    1000.68500000    1000.67500000    1000.66500000    1000.65500000    1000.64500000    1000.63500000    1000.62500000    1000.61500000    1000.60500000    1000.59500000    1000.58500000    1000.57500000    1000.56500000    1000.55500000    1000.54500000    1000.53500000    1000.52500000    1000.51500000    1000.50500000    1000.49500000    1000.48500000    1000.47500000    1000.46500000    1000.45500000    1000.44500000    1000.43500000    1000.42500000    1000.41500000    1000.40500000    1000.39500000    1000.38500000    1000.37500000    1000.36500000    1000.35500000    1000.34500000    1000.33500000    1000.32500000    1000.31500000    1000.30500000    1000.29500000    1000.28500000    1000.27500000    1000.26500000    1000.25500000    1000.24500000    1000.23500000    1000.22500000    1000.21500000    1000.20500000    1000.19500000    1000.18500000    1000.17500000    1000.16500000    1000.15500000    1000.14500000    1000.13500000    1000.12500000    1000.11500000    1000.10500000    1000.09500000    1000.08500000    1000.07500000    1000.06500000    1000.05500000    1000.04500000    1000.03500000    1000.02500000    1000.01500000    1000.00500000
      1000.99500000    1000.98500000    1000.97500000    1000.96500000    1000.95500000    1000.94500000    1000.93500000    1000.92500000    1000.91500000    1000.90500000    1000.89500000    1000.88500000    1000.87500000    1000.86500000    1000.85500000    1000.84500000    1000.83500000    1000.82500000    1000.81500000    1000.80500000    1000.79500000    1000.78500000    1000.77500000    1000.76500000    1000.75500000    1000.74500000    1000.73500000    1000.72500000    1000.71500000    1000.70500000    1000.69500000    1000.68500000    1000.67500000    1000.66500000    1000.65500000    1000.64500000    1000.63500000    1000.62500000    1000.61500000    1000.60500000    1000.59500000    1000.58500000    1000.57500000    1000.56500000    1000.55500000    1000.54500000    1000.53500000    1000.52500000    1000.51500000    1000.50500000    1000.49500000    1000.48500000    1000.47500000    1000.46500000    1000.45500000    1000.44500000    1000.43500000    1000.42500000    1000.41500000    1000.40500000    1000.39500000    1000.38500000    1000.37500000    1000.36500000    1000.35500000    1000.34500000    1000.33500000    1000.32500000    1000.31500000    1000.30500000    1000.29500000    1000.28500000    1000.27500000    1000.26500000    1000.25500000    1000.24500000    1000.23500000    1000.22500000    1000.21500000    1000.20500000    1000.19500000    1000.18500000    1000.17500000    1000.16500000    1000.15500000    1000.14500000    1000.13500000    1000.12500000    1000.11500000    1000.10500000    1000.09500000    1000.08500000    1000.07500000    1000.06500000    1000.05500000    1000.04500000    1000.03500000    1000.02500000    1000.01500000    1000.00500000
      1000.99500000    1000.98500000    1000.97500000    1000.96500000    1000.95500000    1000.94500000    1000.93500000    1000.92500000    1000.91500000    1000.90500000    1000.89500000    1000.88500000    1000.87500000    1000.86500000    1000.85500000    1000.84500000    1000.83500000    1000.82500000    1000.81500000    1000.80500000    1000.79500000    1000.78500000    1000.77500000    1000.76500000    1000.75500000    1000.74500000    1000.73500000    1000.72500000    1000.71500000    1000.70500000    1000.69500000    1000.68500000    1000.67500000    1000.66500000    1000.65500000    1000.64500000    1000.63500000    1000.62500000    1000.61500000    1000.60500000    1000.59500000    1000.58500000    1000.57500000    1000.56500000    1000.55500000    1000.54500000    1000.53500000    1000.52500000    1000.51500000    1000.50500000    1000.49500000    1000.48500000    1000.47500000    1000.46500000    1000.45500000    1000.44500000    1000.43500000    1000.42500000    1000.41500000    1000.40500000    1000.39500000    1000.38500000    1000.37500000    1000.36500000    1000.35500000    1000.34500000    1000.33500000    1000.32500000    1000.31500000    1000.30500000    1000.29500000    1000.28500000    1000.27500000    1000.26500000    1000.25500000    1000.24500000    1000.23500000    1000.22500000    1000.21500000    1000.20500000    1000.19500000    1000.18500000    1000.17500000    1000.16500000    1000.15500000    1000.14500000    1000.13500000    1000.12500000    1000.11500000    1000.10500000    1000.09500000    1000.08500000    1000.07500000    1000.06500000    1000.05500000    1000.04500000    1000.03500000    1000.02500000    1000.01500000    1000.00500000
      1000.99500000    1000.98500000    1000.97500000    1000.96500000    1000.95500000    1000.94500000    1000.93500000    1000.92500000    1000.91500000    1000.90500000    1000.89500000    1000.88500000    1000.87500000    1000.86500000    1000.85500000    1000.84500000    1000.83500000    1000.82500000    1000.81500000    1000.80500000    1000.79500000    1000.78500000    1000.77500000    1000.76500000    1000.75500000    1000.74500000    1000.73500000    1000.72500000    1000.71500000    1000.70500000    1000.69500000    1000.68500000    1000.67500000    1000.66500000    1000.65500000    1000.64500000    1000.63500000    1000.62500000    1000.61500000    1000.60500000    1000.59500000    1000.58500000    1000.57500000    1000.56500000    1000.55500000    1000.54500000    1000.53500000    1000.52500000    1000.51500000    1000.50500000    1000.49500000    1000.48500000    1000.47500000    1000.46500000    1000.45500000    1000.44500000    1000.43500000    1000.42500000    1000.41500000    1000.40500000    1000.39500000    1000.38500000    1000.37500000    1000.36500000    1000.35500000    1000.34500000    1000.33500000    1000.32500000    1000.31500000    1000.30500000    1000.29500000    1000.28500000    1000.27500000    1000.26500000    1000.25500000    1000.24500000    1000.23500000    1000.22500000    1000.21500000    1000.20500000    1000.19500000    1000.18500000    1000.17500000    1000.16500000    1000.15500000    1000.14500000    1000.13500000    1000.12500000    1000.11500000    1000.10500000    1000.09500000    1000.08500000    1000.07500000    1000.06500000    1000.05500000    1000.04500000    1000.03500000    1000.02500000    1000.01500000    1000.00500000
      1000.99500000    1000.98500000    1000.97500000    1000.96500000    1000.95500000    1000.94500000    1000.93500000    1000.92500000    1000.91500000    1000.90500000    1000.89500000    1000.88500000    1000.87500000    1000.86500000    1000.85500000    1000.84500000    1000.83500000    1000.82500000    1000.81500000    1000.80500000    1000.79500000    1000.78500000    1000.77500000    1000.76500000    1000.75500000    1000.74500000    1000.73500000    1000.72500000    1000.71500000    1000.70500000    1000.69500000    1000.68500000    1000.67500000    1000.66500000    1000.65500000    1000.64500000    1000.63500000    1000.62500000    1000.61500000    1000.60500000    1000.59500000    1000.58500000    1000.57500000    1000.56500000    1000.55500000    1000.54500000    1000.53500000    1000.52500000    1000.51500000    1000.50500000    1000.49500000    1000.48500000    1000.47500000    1000.46500000    1000.45500000    1000.44500000    1000.43500000    1000.42500000    1000.41500000    1000.40500000    1000.39500000    1000.38500000    1000.37500000    1000.36500000    1000.35500000    1000.34500000    1000.33500000    1000.32500000    1000.31500000    1000.30500000    1000.29500000    1000.28500000    1000.27500000    1000.26500000    1000.25500000    1000.24500000    1000.23500000    1000.22500000    1000.21500000    1000.20500000    1000.19500000    1000.18500000    1000.17500000    1000.16500000    1000.15500000    1000.14500000    1000.13500000    1000.12500000    1000.11500000    1000.10500000    1000.09500000    1000.08500000    1000.07500000    1000.06500000    1000.05500000    1000.04500000    1000.03500000    1000.02500000    1000.01500000    1000.00500000