# File generated by Flopy version 3.9.2 on 05/08/2025 at 09:08:33.
BEGIN options
  BUDGET  FILEOUT  xdbox.cbb
  HEAD  FILEOUT  xdbox.hds
END options

BEGIN period  1
  SAVE  HEAD  ALL
  SAVE  BUDGET  ALL
  PRINT  HEAD  ALL
END period  1

