# File generated by Flopy version 3.6.0.dev0 on 05/07/2025 at 18:40:38.
BEGIN options
  SAVE_FLOWS
  NEWTON
END options

BEGIN packages
  DIS6  xdbox.dis  dis
  IC6  xdbox.ic  ic
  STO6  xdbox.sto  sto
  CHD6  xdbox.chd  chd_0
  WEL6  xdbox.wel  wel_0
  OC6  xdbox.oc  oc
  NPF6  xdbox.npf  npf
END packages

