# File generated by Flopy version 3.6.0.dev0 on 05/07/2025 at 18:40:38.
BEGIN options
END options

BEGIN griddata
  iconvert
    CONSTANT  0
  ss
    CONSTANT  1.00000000E-05
  sy
    CONSTANT       0.15000000
END griddata

BEGIN period  1
  TRANSIENT
END period  1

