# File generated by Flopy version 3.3.4 on 05/23/2022 at 17:06:54.
BEGIN options
  BUDGET  FILEOUT  GWF_2D_SS.cbb
  HEAD  FILEOUT  GWF_2D_SS.hds
END options

BEGIN period  1
  SAVE  HEAD  ALL
  SAVE  BUDGET  ALL
  PRINT  HEAD  ALL
END period  1

