# File generated by Flopy version 3.3.4 on 05/23/2022 at 17:06:54.
BEGIN options
  COMPLEXITY  simple
END options

BEGIN linear
  LINEAR_ACCELERATION  bicgstab
END linear

