# File generated by Flopy version 3.3.4 on 05/23/2022 at 17:06:54.
BEGIN options
END options

BEGIN dimensions
  NLAY  1
  NROW  11
  NCOL  11
END dimensions

BEGIN griddata
  delr
    CONSTANT      10.00000000
  delc
    CONSTANT      10.00000000
  top
    CONSTANT       0.00000000
  botm
    CONSTANT      -1.00000000
  idomain
    INTERNAL  FACTOR  1
    1  1  1  1  1  1  1  1  1  1  1
    1  1  1  1  1  1  1  1  1  1  1
    1  1  1  1  1  1  1  1  1  1  1
    1  1  1  1  1  1  1  1  1  1  1
    1  1  1  1  1  1  1  1  1  1  1
    1  1  1  1  1  1  1  1  1  1  1
    1  1  1  1  1  1  1  1  1  1  1
    1  1  1  1  1  1  1  1  1  1  1
    1  1  1  1  1  1  1  1  1  1  1
    1  1  1  1  1  1  1  1  1  1  1
    1  1  1  1  1  1  1  1  1  1  1
END griddata

