# File generated by Flopy version 3.3.4 on 05/23/2022 at 17:06:54.
BEGIN options
END options

BEGIN dimensions
  MAXBOUND  40
END dimensions

BEGIN period  1
  1 1 1     100.00000000
  1 1 11     100.00000000
  1 2 1     100.00000000
  1 2 11     100.00000000
  1 1 2     100.00000000
  1 11 2     100.00000000
  1 3 1     100.00000000
  1 3 11     100.00000000
  1 1 3     100.00000000
  1 11 3     100.00000000
  1 4 1     100.00000000
  1 4 11     100.00000000
  1 1 4     100.00000000
  1 11 4     100.00000000
  1 5 1     100.00000000
  1 5 11     100.00000000
  1 1 5     100.00000000
  1 11 5     100.00000000
  1 6 1     100.00000000
  1 6 11     100.00000000
  1 1 6     100.00000000
  1 11 6     100.00000000
  1 7 1     100.00000000
  1 7 11     100.00000000
  1 1 7     100.00000000
  1 11 7     100.00000000
  1 8 1     100.00000000
  1 8 11     100.00000000
  1 1 8     100.00000000
  1 11 8     100.00000000
  1 9 1     100.00000000
  1 9 11     100.00000000
  1 1 9     100.00000000
  1 11 9     100.00000000
  1 10 1     100.00000000
  1 10 11     100.00000000
  1 1 10     100.00000000
  1 11 10     100.00000000
  1 11 1     100.00000000
  1 11 11     100.00000000
END period  1

