# File generated by Flopy version 3.3.4 on 05/23/2022 at 17:06:54.
BEGIN options
  SAVE_FLOWS
  NEWTON  UNDER_RELAXATION
END options

BEGIN packages
  DIS6  GWF_2D_SS.dis  dis
  IC6  GWF_2D_SS.ic  ic
  STO6  GWF_2D_SS.sto  sto
  CHD6  GWF_2D_SS.chd  chd_0
  WEL6  GWF_2D_SS.wel  wel_0
  OC6  GWF_2D_SS.oc  oc
  NPF6  GWF_2D_SS.npf  npf
END packages

