# File generated by Flopy version 3.3.4 on 05/23/2022 at 17:06:54.
BEGIN options
  MEMORY_PRINT_OPTION  all
END options

BEGIN timing
  TDIS6  GWF_2D_SS.tdis
END timing

BEGIN models
  gwf6  GWF_2D_SS.nam  GWF_2D_SS
END models

BEGIN exchanges
END exchanges

BEGIN solutiongroup  1
  ims6  GWF_2D_SS.ims  GWF_2D_SS
END solutiongroup  1

