BEGIN Options
END Options

BEGIN GRIDDATA
  iconvert  LAYERED
    CONSTANT  1
    CONSTANT  0
    CONSTANT  0
  ss  LAYERED
    constant 1e-6
    constant 1e-6
    constant 1e-6
  sy  LAYERED
    constant 0.1
    constant 0.1
    constant 0.1
END GRIDDATA

BEGIN Period  1
  STEADY-STATE
END Period  1

BEGIN Period  2
  TRANSIENT
END Period  2

